TITL C-1892084-2856-56 -2.69293353511418e-07 1000000 -1647.33766459453 0 0 240 (C1) n - 1
REM
REM in /nfs/bkarasulu/CARBON/AIRSS/Generating-Clusters/GAP-ML-2020/Higher-Symm/Selected-Sizes/TryA-Only_Ih-Symm/Larger-Clusters
REM
REM
REM
REM
REM
REM ./C.cell (2cf5181f0f1d4d5b12b972d32ad12063)
REM
REM compiler GCC version 9.2.1 20190827 (Red Hat 9.2.1-1)
REM options -cpp -mtune=generic -march=x86-64 -g -O0 -fpre-include=/usr/include/finclude/math-vector-fortran.h
REM seed 1559715427 -393051287 178273303 540175567 1376364879 62982792 -791064305 1972606310 -1647978498 -896095534 2069717086 -1379346315 -348493299 393471637 297717436 -381499967 -956802817 1818678663 -78359535 -1367272632 363125606 2060397680 -366385570 -716324719 586971080 541715673 1941962259 -536494073 -1500772645 -926411422 -880428013 -2142873617 -1878262419
REM
CELL 1.54180  100.00000  100.00000  100.00000   90.00000   90.00000   90.00000
LATT -1
SFAC C  
C      1  0.4806150000000  0.5577110000000  0.4898770000000 1.0
C      1  0.4847720000000  0.4808510000000  0.5572970000000 1.0
C      1  0.5613060000000  0.4830520000000  0.4765080000000 1.0
C      1  0.5182280000000  0.4416900000000  0.4898870000000 1.0
C      1  0.5174400000000  0.5530360000000  0.5208630000000 1.0
C      1  0.4818400000000  0.4465560000000  0.5225000000000 1.0
C      1  0.5162190000000  0.5192740000000  0.5561570000000 1.0
C      1  0.5173150000000  0.4813520000000  0.4444470000000 1.0
C      1  0.4842990000000  0.5198950000000  0.4440350000000 1.0
C      1  0.4376680000000  0.5178070000000  0.4763860000000 1.0
C      1  0.4409540000000  0.4823450000000  0.5158440000000 1.0
C      1  0.5595830000000  0.5161040000000  0.5159320000000 1.0
C      1  0.4806270000000  0.5526210000000  0.5205900000000 1.0
C      1  0.4829590000000  0.4822590000000  0.4461160000000 1.0
C      1  0.5602730000000  0.4839720000000  0.5147650000000 1.0
C      1  0.5186680000000  0.4468270000000  0.5208490000000 1.0
C      1  0.5184120000000  0.5580300000000  0.4897720000000 1.0
C      1  0.4804040000000  0.4411550000000  0.4915500000000 1.0
C      1  0.5193040000000  0.5185030000000  0.4435250000000 1.0
C      1  0.5170470000000  0.4809320000000  0.5558870000000 1.0
C      1  0.4838870000000  0.5190270000000  0.5566930000000 1.0
C      1  0.4382550000000  0.5147120000000  0.5145170000000 1.0
C      1  0.4357880000000  0.4842180000000  0.4783270000000 1.0
C      1  0.5627970000000  0.5155190000000  0.4778510000000 1.0
C      1  0.5135830000000  0.4927920000000  0.5204980000000 1.0
C      1  0.5262170000000  0.5143660000000  0.4869900000000 1.0
C      1  0.4836680000000  0.5172490000000  0.5112870000000 1.0
C      1  0.4857190000000  0.5070020000000  0.5208630000000 1.0
C      1  0.4851190000000  0.4960030000000  0.4785470000000 1.0
C      1  0.5160450000000  0.5161760000000  0.4775300000000 1.0
C      1  0.4821060000000  0.4862480000000  0.4879800000000 1.0
C      1  0.4733360000000  0.5152570000000  0.5015720000000 1.0
C      1  0.5254170000000  0.4849110000000  0.5014510000000 1.0
C      1  0.5153950000000  0.4822730000000  0.5112340000000 1.0
C      1  0.5066650000000  0.5248660000000  0.4830970000000 1.0
C      1  0.4915180000000  0.4757710000000  0.4860420000000 1.0
C      1  0.5145090000000  0.4850080000000  0.4784500000000 1.0
C      1  0.5253810000000  0.5149160000000  0.5012730000000 1.0
C      1  0.4928540000000  0.5231110000000  0.4838720000000 1.0
C      1  0.4851690000000  0.5114850000000  0.4787160000000 1.0
C      1  0.4855690000000  0.4924500000000  0.5211530000000 1.0
C      1  0.5136340000000  0.5072580000000  0.5204510000000 1.0
C      1  0.4749660000000  0.4856930000000  0.5007400000000 1.0
C      1  0.4731920000000  0.5144430000000  0.4873110000000 1.0
C      1  0.5255140000000  0.4859570000000  0.4872220000000 1.0
C      1  0.5054390000000  0.4757710000000  0.4839350000000 1.0
C      1  0.5151950000000  0.5175610000000  0.5108510000000 1.0
C      1  0.4836950000000  0.4821960000000  0.5117660000000 1.0
C      1  0.4339240000000  0.4694640000000  0.4548330000000 1.0
C      1  0.4577710000000  0.4357740000000  0.4767030000000 1.0
C      1  0.4753780000000  0.4567150000000  0.4395990000000 1.0
C      1  0.5670740000000  0.5311800000000  0.4556960000000 1.0
C      1  0.5663570000000  0.4730950000000  0.5392780000000 1.0
C      1  0.4335740000000  0.5251690000000  0.5396130000000 1.0
C      1  0.5417440000000  0.5642370000000  0.4766520000000 1.0
C      1  0.5436900000000  0.4357740000000  0.5262470000000 1.0
C      1  0.4554990000000  0.5630210000000  0.5265680000000 1.0
C      1  0.5270490000000  0.5441900000000  0.4377490000000 1.0
C      1  0.5299700000000  0.4579080000000  0.5640850000000 1.0
C      1  0.4698030000000  0.5414730000000  0.5643460000000 1.0
C      1  0.4353950000000  0.4724680000000  0.5409240000000 1.0
C      1  0.4574270000000  0.4347570000000  0.5288290000000 1.0
C      1  0.4720490000000  0.4578320000000  0.5657890000000 1.0
C      1  0.5651990000000  0.5276140000000  0.5402720000000 1.0
C      1  0.5646930000000  0.4679160000000  0.4538150000000 1.0
C      1  0.4350640000000  0.5324790000000  0.4533620000000 1.0
C      1  0.5421900000000  0.5644250000000  0.5265980000000 1.0
C      1  0.5406960000000  0.4346630000000  0.4755720000000 1.0
C      1  0.4583970000000  0.5655470000000  0.4754750000000 1.0
C      1  0.5283710000000  0.5426750000000  0.5645160000000 1.0
C      1  0.5234850000000  0.4552610000000  0.4380190000000 1.0
C      1  0.4765070000000  0.5454520000000  0.4379190000000 1.0
C      1  0.4695210000000  0.4341570000000  0.4682270000000 1.0
C      1  0.4649450000000  0.4662120000000  0.4354080000000 1.0
C      1  0.4320910000000  0.4607400000000  0.4664780000000 1.0
C      1  0.5306820000000  0.5659960000000  0.4673590000000 1.0
C      1  0.5339260000000  0.4336880000000  0.5372160000000 1.0
C      1  0.4653950000000  0.5654240000000  0.5373150000000 1.0
C      1  0.5378430000000  0.5348640000000  0.4339020000000 1.0
C      1  0.5394200000000  0.4690980000000  0.5643600000000 1.0
C      1  0.4607930000000  0.5299340000000  0.5644910000000 1.0
C      1  0.5679610000000  0.5396240000000  0.4676530000000 1.0
C      1  0.5681950000000  0.4627190000000  0.5290710000000 1.0
C      1  0.4313160000000  0.5357000000000  0.5296290000000 1.0
C      1  0.4676630000000  0.4330400000000  0.5394330000000 1.0
C      1  0.4625180000000  0.4689450000000  0.5659410000000 1.0
C      1  0.4332430000000  0.4617720000000  0.5310710000000 1.0
C      1  0.5322060000000  0.5665900000000  0.5373610000000 1.0
C      1  0.5289830000000  0.4331500000000  0.4670240000000 1.0
C      1  0.4703130000000  0.5669360000000  0.4671650000000 1.0
C      1  0.5380440000000  0.5316780000000  0.5650810000000 1.0
C      1  0.5343040000000  0.4642730000000  0.4336280000000 1.0
C      1  0.4660710000000  0.5359650000000  0.4337150000000 1.0
C      1  0.5669170000000  0.5377810000000  0.5298660000000 1.0
C      1  0.5664630000000  0.4593040000000  0.4655400000000 1.0
C      1  0.4326380000000  0.5412760000000  0.4648560000000 1.0
C      1  0.5276600000000  0.4363520000000  0.4807420000000 1.0
C      1  0.4786730000000  0.5314610000000  0.4382430000000 1.0
C      1  0.4361360000000  0.4750420000000  0.5270950000000 1.0
C      1  0.4712800000000  0.5633030000000  0.4807820000000 1.0
C      1  0.4710860000000  0.4382030000000  0.5268140000000 1.0
C      1  0.5284570000000  0.5612040000000  0.5249390000000 1.0
C      1  0.5220700000000  0.4693160000000  0.4385030000000 1.0
C      1  0.5243760000000  0.5293070000000  0.5622690000000 1.0
C      1  0.4762760000000  0.4711010000000  0.5634120000000 1.0
C      1  0.5644600000000  0.5242050000000  0.5266050000000 1.0
C      1  0.5652410000000  0.4732980000000  0.4668750000000 1.0
C      1  0.4338820000000  0.5273240000000  0.4664890000000 1.0
C      1  0.5299030000000  0.4388860000000  0.5247980000000 1.0
C      1  0.4746850000000  0.5283850000000  0.5623620000000 1.0
C      1  0.4328230000000  0.4747010000000  0.4679920000000 1.0
C      1  0.4693270000000  0.5602810000000  0.5248270000000 1.0
C      1  0.4708120000000  0.4367760000000  0.4820580000000 1.0
C      1  0.5283900000000  0.5629260000000  0.4810050000000 1.0
C      1  0.5256380000000  0.4711530000000  0.5618110000000 1.0
C      1  0.5251280000000  0.5301950000000  0.4378960000000 1.0
C      1  0.4774380000000  0.4706940000000  0.4402300000000 1.0
C      1  0.5670250000000  0.5256000000000  0.4686890000000 1.0
C      1  0.5655260000000  0.4761920000000  0.5255140000000 1.0
C      1  0.4337410000000  0.5223040000000  0.5257490000000 1.0
C      1  0.5277760000000  0.5551060000000  0.5594420000000 1.0
C      1  0.5594110000000  0.5264360000000  0.5524130000000 1.0
C      1  0.5544060000000  0.5590860000000  0.5251600000000 1.0
C      1  0.4725650000000  0.4452620000000  0.5610390000000 1.0
C      1  0.4774920000000  0.5566720000000  0.4452640000000 1.0
C      1  0.5221320000000  0.4440330000000  0.4453010000000 1.0
C      1  0.4413810000000  0.4741350000000  0.5528880000000 1.0
C      1  0.4423720000000  0.5324590000000  0.4420420000000 1.0
C      1  0.5578550000000  0.4677850000000  0.4422270000000 1.0
C      1  0.4451570000000  0.4399610000000  0.5274720000000 1.0
C      1  0.4459070000000  0.5606570000000  0.4742990000000 1.0
C      1  0.5531270000000  0.4398220000000  0.4747480000000 1.0
C      1  0.5255070000000  0.5554730000000  0.4449470000000 1.0
C      1  0.5608680000000  0.5312550000000  0.4437470000000 1.0
C      1  0.5541500000000  0.5589210000000  0.4765460000000 1.0
C      1  0.4764510000000  0.4453410000000  0.4466900000000 1.0
C      1  0.4699890000000  0.5539820000000  0.5594170000000 1.0
C      1  0.5295700000000  0.4453840000000  0.5592150000000 1.0
C      1  0.4411890000000  0.4696860000000  0.4434800000000 1.0
C      1  0.4398060000000  0.5237790000000  0.5515480000000 1.0
C      1  0.5606410000000  0.4744270000000  0.5514600000000 1.0
C      1  0.4454640000000  0.4412590000000  0.4757670000000 1.0
C      1  0.4434350000000  0.5573050000000  0.5252440000000 1.0
C      1  0.5558260000000  0.4412500000000  0.5246680000000 1.0
C      1  0.5184310000000  0.4939960000000  0.5607970000000 1.0
C      1  0.5671130000000  0.5165570000000  0.4911840000000 1.0
C      1  0.4928080000000  0.5563140000000  0.5264850000000 1.0
C      1  0.4833600000000  0.5061120000000  0.5620850000000 1.0
C      1  0.4778340000000  0.4950190000000  0.4427490000000 1.0
C      1  0.5245780000000  0.5057080000000  0.4404430000000 1.0
C      1  0.4320420000000  0.4808640000000  0.4915510000000 1.0
C      1  0.4329980000000  0.5177700000000  0.5018990000000 1.0
C      1  0.5656930000000  0.4823570000000  0.5019230000000 1.0
C      1  0.5066630000000  0.4433210000000  0.5272570000000 1.0
C      1  0.5056220000000  0.5637940000000  0.4900710000000 1.0
C      1  0.4932520000000  0.4354730000000  0.4915130000000 1.0
C      1  0.5239220000000  0.4934720000000  0.4407140000000 1.0
C      1  0.5658050000000  0.5171270000000  0.5033700000000 1.0
C      1  0.4933720000000  0.5635060000000  0.4903600000000 1.0
C      1  0.4783520000000  0.5072420000000  0.4418940000000 1.0
C      1  0.4836270000000  0.4938770000000  0.5623030000000 1.0
C      1  0.5181410000000  0.5062260000000  0.5609260000000 1.0
C      1  0.4341840000000  0.4803940000000  0.5035980000000 1.0
C      1  0.4329700000000  0.5187960000000  0.4896720000000 1.0
C      1  0.5662070000000  0.4819700000000  0.4896740000000 1.0
C      1  0.5054800000000  0.4358860000000  0.4907370000000 1.0
C      1  0.5050990000000  0.5564480000000  0.5266100000000 1.0
C      1  0.4943840000000  0.4432170000000  0.5277000000000 1.0
C      1  0.5392900000000  0.5077510000000  0.4870060000000 1.0
C      1  0.4911480000000  0.5301130000000  0.5095730000000 1.0
C      1  0.5076380000000  0.4918860000000  0.5338650000000 1.0
C      1  0.4572720000000  0.4938850000000  0.4879210000000 1.0
C      1  0.4608830000000  0.5080170000000  0.5032230000000 1.0
C      1  0.5380380000000  0.4921860000000  0.5032160000000 1.0
C      1  0.5080740000000  0.4692980000000  0.5099580000000 1.0
C      1  0.5073020000000  0.5344100000000  0.4939050000000 1.0
C      1  0.4916800000000  0.4646240000000  0.4951810000000 1.0
C      1  0.4920650000000  0.5080550000000  0.5340620000000 1.0
C      1  0.4933430000000  0.4938860000000  0.4668030000000 1.0
C      1  0.5099630000000  0.5085990000000  0.4662090000000 1.0
C      1  0.5378810000000  0.5075640000000  0.5034190000000 1.0
C      1  0.4914250000000  0.5337440000000  0.4939310000000 1.0
C      1  0.5095540000000  0.4927370000000  0.4668440000000 1.0
C      1  0.4619500000000  0.4920670000000  0.5020490000000 1.0
C      1  0.4598420000000  0.5083890000000  0.4864070000000 1.0
C      1  0.5387740000000  0.4922070000000  0.4867140000000 1.0
C      1  0.5073990000000  0.4654480000000  0.4941670000000 1.0
C      1  0.5075570000000  0.5303690000000  0.5095430000000 1.0
C      1  0.4914570000000  0.4691260000000  0.5106930000000 1.0
C      1  0.4937390000000  0.5093330000000  0.4654200000000 1.0
C      1  0.4921390000000  0.4917720000000  0.5343280000000 1.0
C      1  0.5075480000000  0.5081980000000  0.5338360000000 1.0
C      1  0.5090160000000  0.5169040000000  0.4533990000000 1.0
C      1  0.4500580000000  0.5062600000000  0.5131780000000 1.0
C      1  0.5168660000000  0.4568030000000  0.5106380000000 1.0
C      1  0.4935780000000  0.4839660000000  0.4556190000000 1.0
C      1  0.4925900000000  0.5183390000000  0.5449490000000 1.0
C      1  0.5076320000000  0.4816310000000  0.5447310000000 1.0
C      1  0.5485440000000  0.4926030000000  0.5138900000000 1.0
C      1  0.5509600000000  0.5069240000000  0.4778480000000 1.0
C      1  0.4464640000000  0.4939130000000  0.4789550000000 1.0
C      1  0.4823250000000  0.5426110000000  0.5104210000000 1.0
C      1  0.4819490000000  0.4538690000000  0.4983520000000 1.0
C      1  0.5169240000000  0.5454180000000  0.4967850000000 1.0
C      1  0.5071130000000  0.5184010000000  0.5447610000000 1.0
C      1  0.4484860000000  0.5081190000000  0.4765720000000 1.0
C      1  0.5172650000000  0.4545340000000  0.4966460000000 1.0
C      1  0.4931180000000  0.4815880000000  0.5452850000000 1.0
C      1  0.4949930000000  0.5179240000000  0.4535180000000 1.0
C      1  0.5075420000000  0.4840890000000  0.4545940000000 1.0
C      1  0.5502080000000  0.4925340000000  0.4772430000000 1.0
C      1  0.5481660000000  0.5071330000000  0.5143530000000 1.0
C      1  0.4516510000000  0.4919410000000  0.5136640000000 1.0
C      1  0.4816880000000  0.5448100000000  0.4964720000000 1.0
C      1  0.4828200000000  0.4566350000000  0.5122140000000 1.0
C      1  0.5161720000000  0.5429880000000  0.5106530000000 1.0
C      1  0.4755070000000  0.5642080000000  0.4549750000000 1.0
C      1  0.4503010000000  0.4727260000000  0.5614570000000 1.0
C      1  0.5619360000000  0.4478720000000  0.4712390000000 1.0
C      1  0.5238780000000  0.4362560000000  0.4548630000000 1.0
C      1  0.5295850000000  0.5632370000000  0.5501430000000 1.0
C      1  0.4705340000000  0.4368550000000  0.5520380000000 1.0
C      1  0.5503790000000  0.5280360000000  0.5608330000000 1.0
C      1  0.5474570000000  0.4666270000000  0.4354430000000 1.0
C      1  0.4529190000000  0.5334220000000  0.4354560000000 1.0
C      1  0.4370910000000  0.5527030000000  0.4705930000000 1.0
C      1  0.4365790000000  0.4489810000000  0.5282230000000 1.0
C      1  0.5631470000000  0.5502710000000  0.5262700000000 1.0
C      1  0.4679560000000  0.5620500000000  0.5501070000000 1.0
C      1  0.4518050000000  0.4688060000000  0.4370030000000 1.0
C      1  0.5644930000000  0.4501460000000  0.5256860000000 1.0
C      1  0.5315410000000  0.4371720000000  0.5500110000000 1.0
C      1  0.5265790000000  0.5630230000000  0.4547910000000 1.0
C      1  0.4746340000000  0.4374180000000  0.4561120000000 1.0
C      1  0.5508290000000  0.5323100000000  0.4364530000000 1.0
C      1  0.5516490000000  0.4728790000000  0.5599340000000 1.0
C      1  0.4487660000000  0.5255470000000  0.5600100000000 1.0
C      1  0.4348090000000  0.5483950000000  0.5263930000000 1.0
C      1  0.4366620000000  0.4492480000000  0.4720960000000 1.0
C      1  0.5631160000000  0.5509190000000  0.4733570000000 1.0
END
