TITL C-1887018-2751-25 2.45641584590908e-07 1000000 -3544.8198632388 0 0 500 (C3) n - 1
REM
REM in /nfs/bkarasulu/CARBON/AIRSS/Generating-Clusters/GAP-ML-2020/Higher-Symm/Selected-Sizes/TryA-Only_Ih-Symm/Larger-Clusters
REM
REM
REM
REM
REM
REM ./C.cell (2cf5181f0f1d4d5b12b972d32ad12063)
REM
REM compiler GCC version 9.2.1 20190827 (Red Hat 9.2.1-1)
REM options -cpp -mtune=generic -march=x86-64 -g -O0 -fpre-include=/usr/include/finclude/math-vector-fortran.h
REM seed -1541400030 -1004063881 1485764511 47936367 765618634 -218266952 1455938385 2097843974 -2066651766 22060773 1424049732 1910089182 -1136636028 -2043316799 -1520582116 2059932972 1451424384 1533531507 1615112928 1896705841 -318324268 168529011 -159240126 -1206111234 -324169298 -1558762722 869867643 -1729387235 -180228854 1524275179 -1466388865 -1483817305 2046830166
REM
CELL 1.54180  100.00000  100.00000  100.00000   90.00000   90.00000   90.00000
LATT -1
SFAC C  
C      1  0.5610770000000  0.4815710000000  0.4702910000000 1.0
C      1  0.4712290000000  0.5596320000000  0.4825250000000 1.0
C      1  0.4824600000000  0.4704390000000  0.5614060000000 1.0
C      1  0.5597670000000  0.5176850000000  0.5291170000000 1.0
C      1  0.4410630000000  0.5185340000000  0.4700380000000 1.0
C      1  0.4389400000000  0.4823250000000  0.5297720000000 1.0
C      1  0.4705740000000  0.4388050000000  0.5178860000000 1.0
C      1  0.5303080000000  0.4409280000000  0.4816780000000 1.0
C      1  0.5300560000000  0.5609420000000  0.5186400000000 1.0
C      1  0.4817060000000  0.5299200000000  0.4392690000000 1.0
C      1  0.5186690000000  0.5301730000000  0.5592830000000 1.0
C      1  0.5178210000000  0.4710940000000  0.4405800000000 1.0
C      1  0.4405020000000  0.4815260000000  0.4710370000000 1.0
C      1  0.5308990000000  0.5606190000000  0.4812580000000 1.0
C      1  0.5174220000000  0.4707350000000  0.5596900000000 1.0
C      1  0.4406560000000  0.5172870000000  0.5294760000000 1.0
C      1  0.5607540000000  0.5189530000000  0.4694470000000 1.0
C      1  0.5604640000000  0.4827270000000  0.5287080000000 1.0
C      1  0.5293090000000  0.4403670000000  0.5186850000000 1.0
C      1  0.4708700000000  0.4405210000000  0.4829240000000 1.0
C      1  0.4716390000000  0.5603290000000  0.5174840000000 1.0
C      1  0.5190880000000  0.5307640000000  0.4395920000000 1.0
C      1  0.4816610000000  0.5291740000000  0.5598440000000 1.0
C      1  0.4828630000000  0.4715030000000  0.4398820000000 1.0
C      1  0.5215030000000  0.5100490000000  0.4131870000000 1.0
C      1  0.4132060000000  0.5232150000000  0.5136300000000 1.0
C      1  0.5099610000000  0.4134530000000  0.5214460000000 1.0
C      1  0.5233500000000  0.4865810000000  0.5871400000000 1.0
C      1  0.4771210000000  0.4863110000000  0.4127250000000 1.0
C      1  0.4789000000000  0.5098260000000  0.5867580000000 1.0
C      1  0.4135880000000  0.4787650000000  0.4903850000000 1.0
C      1  0.5876210000000  0.4769860000000  0.5139000000000 1.0
C      1  0.5871590000000  0.5213670000000  0.4901620000000 1.0
C      1  0.5101840000000  0.5870240000000  0.4788440000000 1.0
C      1  0.4864460000000  0.5874860000000  0.5232250000000 1.0
C      1  0.4867160000000  0.4130710000000  0.4769960000000 1.0
C      1  0.4788070000000  0.5097420000000  0.4131440000000 1.0
C      1  0.5874750000000  0.5230800000000  0.5137890000000 1.0
C      1  0.4865540000000  0.4122820000000  0.5232340000000 1.0
C      1  0.4771120000000  0.4864190000000  0.5879290000000 1.0
C      1  0.5232160000000  0.4864220000000  0.4128710000000 1.0
C      1  0.5215700000000  0.5102730000000  0.5863390000000 1.0
C      1  0.5872020000000  0.4786720000000  0.4904700000000 1.0
C      1  0.4124170000000  0.4769770000000  0.5137920000000 1.0
C      1  0.4140070000000  0.5214350000000  0.4899390000000 1.0
C      1  0.4865570000000  0.5873400000000  0.4771300000000 1.0
C      1  0.5098770000000  0.5870670000000  0.5215390000000 1.0
C      1  0.5104080000000  0.4138720000000  0.4787760000000 1.0
C      1  0.4650870000000  0.5160300000000  0.4725230000000 1.0
C      1  0.4709730000000  0.4630160000000  0.5164450000000 1.0
C      1  0.5157450000000  0.4737550000000  0.4643900000000 1.0
C      1  0.4631510000000  0.4837670000000  0.5293730000000 1.0
C      1  0.5371050000000  0.4858880000000  0.4723730000000 1.0
C      1  0.5359570000000  0.5156100000000  0.5264560000000 1.0
C      1  0.4738900000000  0.5358220000000  0.4846010000000 1.0
C      1  0.5279730000000  0.5369700000000  0.5143230000000 1.0
C      1  0.5278230000000  0.4649520000000  0.4841810000000 1.0
C      1  0.5161650000000  0.5276880000000  0.5352590000000 1.0
C      1  0.4860230000000  0.5278380000000  0.4632410000000 1.0
C      1  0.4839020000000  0.4708380000000  0.5371950000000 1.0
C      1  0.5369690000000  0.5162220000000  0.4723300000000 1.0
C      1  0.5284010000000  0.4643250000000  0.5144730000000 1.0
C      1  0.4848780000000  0.4725770000000  0.4639450000000 1.0
C      1  0.5364010000000  0.4847430000000  0.5276340000000 1.0
C      1  0.4644600000000  0.4857380000000  0.4719450000000 1.0
C      1  0.4646450000000  0.5145550000000  0.5272630000000 1.0
C      1  0.5280160000000  0.5368340000000  0.4839890000000 1.0
C      1  0.4727120000000  0.5362660000000  0.5154680000000 1.0
C      1  0.4730830000000  0.4645090000000  0.4856560000000 1.0
C      1  0.4858740000000  0.5282660000000  0.5358860000000 1.0
C      1  0.5163570000000  0.5278810000000  0.4633770000000 1.0
C      1  0.5146910000000  0.4729480000000  0.5357020000000 1.0
C      1  0.5386960000000  0.5264980000000  0.5164760000000 1.0
C      1  0.5190950000000  0.5390630000000  0.5263250000000 1.0
C      1  0.5275200000000  0.5187660000000  0.5380680000000 1.0
C      1  0.5391980000000  0.4738860000000  0.4812520000000 1.0
C      1  0.4598390000000  0.4726430000000  0.5194340000000 1.0
C      1  0.4622780000000  0.5273850000000  0.4814450000000 1.0
C      1  0.5189010000000  0.4621430000000  0.4728270000000 1.0
C      1  0.4809120000000  0.4597040000000  0.5275680000000 1.0
C      1  0.4838710000000  0.5385610000000  0.4737130000000 1.0
C      1  0.5266330000000  0.4837350000000  0.4616500000000 1.0
C      1  0.4727780000000  0.4807770000000  0.5405070000000 1.0
C      1  0.4740210000000  0.5189600000000  0.4611480000000 1.0
C      1  0.4620540000000  0.5259200000000  0.5177270000000 1.0
C      1  0.4825490000000  0.5390990000000  0.5265540000000 1.0
C      1  0.4760070000000  0.5147460000000  0.5376450000000 1.0
C      1  0.4627020000000  0.4758720000000  0.4854660000000 1.0
C      1  0.5392340000000  0.4736570000000  0.5177970000000 1.0
C      1  0.5394620000000  0.5278970000000  0.4811260000000 1.0
C      1  0.4826190000000  0.4619190000000  0.4742910000000 1.0
C      1  0.5148810000000  0.4625660000000  0.5243390000000 1.0
C      1  0.5192210000000  0.5393270000000  0.4723140000000 1.0
C      1  0.4737920000000  0.4824140000000  0.4611120000000 1.0
C      1  0.5260550000000  0.4824840000000  0.5382920000000 1.0
C      1  0.5280320000000  0.5190850000000  0.4608840000000 1.0
C      1  0.5485310000000  0.4479150000000  0.5346340000000 1.0
C      1  0.5358960000000  0.5499280000000  0.4464420000000 1.0
C      1  0.4475730000000  0.5345060000000  0.5478830000000 1.0
C      1  0.5500630000000  0.5537690000000  0.4644500000000 1.0
C      1  0.4524530000000  0.5526830000000  0.5338390000000 1.0
C      1  0.4524640000000  0.4474380000000  0.4657050000000 1.0
C      1  0.5346410000000  0.4523280000000  0.5527740000000 1.0
C      1  0.4665070000000  0.4523180000000  0.4475290000000 1.0
C      1  0.4657130000000  0.5483960000000  0.5522960000000 1.0
C      1  0.4480500000000  0.4655770000000  0.4518150000000 1.0
C      1  0.5528180000000  0.4663720000000  0.5478930000000 1.0
C      1  0.5539040000000  0.5357610000000  0.4502830000000 1.0
C      1  0.4523350000000  0.4474740000000  0.5342620000000 1.0
C      1  0.4656580000000  0.5491320000000  0.4469980000000 1.0
C      1  0.5532870000000  0.5348230000000  0.5481910000000 1.0
C      1  0.4521550000000  0.5531520000000  0.4653880000000 1.0
C      1  0.5492670000000  0.5532130000000  0.5346880000000 1.0
C      1  0.5493920000000  0.4473330000000  0.4648360000000 1.0
C      1  0.4660840000000  0.4522000000000  0.5527370000000 1.0
C      1  0.5349580000000  0.4520200000000  0.4470590000000 1.0
C      1  0.5355100000000  0.5492570000000  0.5528780000000 1.0
C      1  0.5533480000000  0.4655230000000  0.4510790000000 1.0
C      1  0.4476090000000  0.4659490000000  0.5480110000000 1.0
C      1  0.4474680000000  0.5353750000000  0.4509540000000 1.0
C      1  0.4721650000000  0.4418420000000  0.5450090000000 1.0
C      1  0.5447320000000  0.4723550000000  0.4419170000000 1.0
C      1  0.4422530000000  0.5447270000000  0.4715390000000 1.0
C      1  0.4724900000000  0.5582940000000  0.4556140000000 1.0
C      1  0.5290000000000  0.5590120000000  0.5445460000000 1.0
C      1  0.5288070000000  0.4421180000000  0.4554840000000 1.0
C      1  0.5448630000000  0.5286720000000  0.5580930000000 1.0
C      1  0.4558000000000  0.5288650000000  0.4411990000000 1.0
C      1  0.4553370000000  0.4720300000000  0.5583690000000 1.0
C      1  0.4419770000000  0.4552020000000  0.5281810000000 1.0
C      1  0.5591470000000  0.4556650000000  0.4713460000000 1.0
C      1  0.5584290000000  0.5445970000000  0.5278560000000 1.0
C      1  0.5283660000000  0.4421450000000  0.5447490000000 1.0
C      1  0.4561420000000  0.4722780000000  0.4422040000000 1.0
C      1  0.5596010000000  0.5451070000000  0.4709110000000 1.0
C      1  0.5294360000000  0.5594660000000  0.4551040000000 1.0
C      1  0.4724130000000  0.5580070000000  0.5442040000000 1.0
C      1  0.4727830000000  0.4425530000000  0.4559600000000 1.0
C      1  0.4555980000000  0.5282310000000  0.5580660000000 1.0
C      1  0.5452430000000  0.5293000000000  0.4407450000000 1.0
C      1  0.5443860000000  0.4726480000000  0.5576580000000 1.0
C      1  0.5581420000000  0.4560070000000  0.5279330000000 1.0
C      1  0.4422800000000  0.4554620000000  0.4719800000000 1.0
C      1  0.4426880000000  0.5442510000000  0.5275630000000 1.0
C      1  0.5850650000000  0.5189880000000  0.5268630000000 1.0
C      1  0.5230360000000  0.5855800000000  0.5177580000000 1.0
C      1  0.5178290000000  0.5234100000000  0.5841510000000 1.0
C      1  0.5857150000000  0.4824520000000  0.4773110000000 1.0
C      1  0.4137300000000  0.4812380000000  0.5269270000000 1.0
C      1  0.4161950000000  0.5176940000000  0.4768010000000 1.0
C      1  0.5235450000000  0.4160600000000  0.4825170000000 1.0
C      1  0.4734190000000  0.4135950000000  0.5189740000000 1.0
C      1  0.4734830000000  0.5849300000000  0.4812230000000 1.0
C      1  0.5191230000000  0.4733480000000  0.4152810000000 1.0
C      1  0.4813730000000  0.4732840000000  0.5866160000000 1.0
C      1  0.4825880000000  0.5229000000000  0.4146310000000 1.0
C      1  0.4154130000000  0.5190200000000  0.5267070000000 1.0
C      1  0.4733520000000  0.5856360000000  0.5190460000000 1.0
C      1  0.4827620000000  0.5228630000000  0.5846730000000 1.0
C      1  0.4156730000000  0.4826260000000  0.4773480000000 1.0
C      1  0.5857710000000  0.4811640000000  0.5269950000000 1.0
C      1  0.5853430000000  0.5175780000000  0.4770040000000 1.0
C      1  0.4736390000000  0.4152780000000  0.4811910000000 1.0
C      1  0.5229980000000  0.4155380000000  0.5175850000000 1.0
C      1  0.5233430000000  0.5852080000000  0.4826330000000 1.0
C      1  0.4813000000000  0.4732160000000  0.4145750000000 1.0
C      1  0.5191550000000  0.4735040000000  0.5849330000000 1.0
C      1  0.5177130000000  0.5232070000000  0.4150030000000 1.0
C      1  0.4563570000000  0.5072830000000  0.4505200000000 1.0
C      1  0.4499810000000  0.4498770000000  0.5067480000000 1.0
C      1  0.5073100000000  0.4510700000000  0.4561790000000 1.0
C      1  0.4500120000000  0.4934630000000  0.5503650000000 1.0
C      1  0.5498940000000  0.4940600000000  0.4500630000000 1.0
C      1  0.5441680000000  0.5071750000000  0.5491410000000 1.0
C      1  0.4512050000000  0.5440330000000  0.4930360000000 1.0
C      1  0.5502840000000  0.5497590000000  0.5061510000000 1.0
C      1  0.5498270000000  0.4562220000000  0.4929280000000 1.0
C      1  0.5074180000000  0.5496920000000  0.5439890000000 1.0
C      1  0.4941960000000  0.5501480000000  0.4504520000000 1.0
C      1  0.4935980000000  0.4498460000000  0.5503340000000 1.0
C      1  0.5449420000000  0.5075420000000  0.4500400000000 1.0
C      1  0.5497970000000  0.4510460000000  0.5063460000000 1.0
C      1  0.4940010000000  0.4508470000000  0.4509240000000 1.0
C      1  0.5494220000000  0.4938660000000  0.5493640000000 1.0
C      1  0.4511810000000  0.4938650000000  0.4505490000000 1.0
C      1  0.4556950000000  0.5067430000000  0.5499650000000 1.0
C      1  0.5503060000000  0.5448060000000  0.4926680000000 1.0
C      1  0.4509820000000  0.5492870000000  0.5063450000000 1.0
C      1  0.4503810000000  0.4555600000000  0.4934680000000 1.0
C      1  0.4940000000000  0.5496620000000  0.5491650000000 1.0
C      1  0.5076780000000  0.5501710000000  0.4554050000000 1.0
C      1  0.5068780000000  0.4502460000000  0.5446510000000 1.0
C      1  0.4935520000000  0.5483040000000  0.4775510000000 1.0
C      1  0.4768410000000  0.4911860000000  0.5499290000000 1.0
C      1  0.5492700000000  0.4731580000000  0.4924450000000 1.0
C      1  0.4913210000000  0.4502820000000  0.5235050000000 1.0
C      1  0.5077410000000  0.4517900000000  0.4730360000000 1.0
C      1  0.5079010000000  0.5491350000000  0.5270520000000 1.0
C      1  0.4732940000000  0.5077660000000  0.4510760000000 1.0
C      1  0.5273100000000  0.5076060000000  0.5484210000000 1.0
C      1  0.5227950000000  0.4934170000000  0.4519070000000 1.0
C      1  0.5484390000000  0.5226600000000  0.5067940000000 1.0
C      1  0.4519250000000  0.5271750000000  0.4926050000000 1.0
C      1  0.4504170000000  0.4767060000000  0.5090250000000 1.0
C      1  0.5082810000000  0.5495280000000  0.4723670000000 1.0
C      1  0.5224660000000  0.4926130000000  0.5479330000000 1.0
C      1  0.4504500000000  0.4722140000000  0.4940200000000 1.0
C      1  0.5063260000000  0.4503140000000  0.5279980000000 1.0
C      1  0.4927480000000  0.4522780000000  0.4778800000000 1.0
C      1  0.4930140000000  0.5485420000000  0.5226350000000 1.0
C      1  0.5279790000000  0.5081460000000  0.4506830000000 1.0
C      1  0.4723490000000  0.5061910000000  0.5498970000000 1.0
C      1  0.4777110000000  0.4928790000000  0.4516690000000 1.0
C      1  0.4524130000000  0.5223310000000  0.5075980000000 1.0
C      1  0.5496630000000  0.5278440000000  0.4920650000000 1.0
C      1  0.5486770000000  0.4775760000000  0.5073330000000 1.0
C      1  0.5477800000000  0.4858680000000  0.4389710000000 1.0
C      1  0.4392360000000  0.5465880000000  0.4850130000000 1.0
C      1  0.4855090000000  0.4385950000000  0.5483650000000 1.0
C      1  0.5467230000000  0.5151980000000  0.5611100000000 1.0
C      1  0.4536790000000  0.5152810000000  0.4384350000000 1.0
C      1  0.4519820000000  0.4853740000000  0.5616160000000 1.0
C      1  0.4387300000000  0.4518460000000  0.5148370000000 1.0
C      1  0.5619110000000  0.4535430000000  0.4849300000000 1.0
C      1  0.5613760000000  0.5476450000000  0.5143430000000 1.0
C      1  0.4860030000000  0.5612400000000  0.4525660000000 1.0
C      1  0.5154170000000  0.5617760000000  0.5466680000000 1.0
C      1  0.5153330000000  0.4391010000000  0.4536230000000 1.0
C      1  0.4529390000000  0.4857370000000  0.4393440000000 1.0
C      1  0.5623680000000  0.5470150000000  0.4845550000000 1.0
C      1  0.5151180000000  0.4384050000000  0.5473390000000 1.0
C      1  0.4530070000000  0.5149830000000  0.5618060000000 1.0
C      1  0.5471500000000  0.5156560000000  0.4379780000000 1.0
C      1  0.5475280000000  0.4859640000000  0.5606900000000 1.0
C      1  0.5610020000000  0.4528040000000  0.5144740000000 1.0
C      1  0.4385400000000  0.4528720000000  0.4852280000000 1.0
C      1  0.4396560000000  0.5473930000000  0.5142460000000 1.0
C      1  0.5157910000000  0.5622330000000  0.4531960000000 1.0
C      1  0.4858720000000  0.5608670000000  0.5474070000000 1.0
C      1  0.4861000000000  0.4395210000000  0.4528180000000 1.0
C      1  0.4928900000000  0.4270600000000  0.5452840000000 1.0
C      1  0.5450300000000  0.4931420000000  0.4273010000000 1.0
C      1  0.4278210000000  0.5441470000000  0.4926720000000 1.0
C      1  0.4932780000000  0.5729100000000  0.4553160000000 1.0
C      1  0.5074440000000  0.5730660000000  0.5443350000000 1.0
C      1  0.5076740000000  0.4276860000000  0.4560650000000 1.0
C      1  0.5442820000000  0.5075390000000  0.5725250000000 1.0
C      1  0.4560110000000  0.5073090000000  0.4271450000000 1.0
C      1  0.4550630000000  0.4927550000000  0.5731510000000 1.0
C      1  0.4271950000000  0.4549280000000  0.5074560000000 1.0
C      1  0.5732010000000  0.4558760000000  0.4929020000000 1.0
C      1  0.5730450000000  0.5448950000000  0.5070690000000 1.0
C      1  0.5073450000000  0.4270030000000  0.5446250000000 1.0
C      1  0.4554470000000  0.4928950000000  0.4275600000000 1.0
C      1  0.5735520000000  0.5443840000000  0.4926200000000 1.0
C      1  0.5077260000000  0.5734170000000  0.4558260000000 1.0
C      1  0.4930310000000  0.5726510000000  0.5448990000000 1.0
C      1  0.4932550000000  0.4278560000000  0.4554740000000 1.0
C      1  0.4557220000000  0.5072100000000  0.5732080000000 1.0
C      1  0.5445200000000  0.5075910000000  0.4267940000000 1.0
C      1  0.5448720000000  0.4931200000000  0.5723550000000 1.0
C      1  0.5727860000000  0.4553120000000  0.5073160000000 1.0
C      1  0.4271380000000  0.4555870000000  0.4930010000000 1.0
C      1  0.4279910000000  0.5447370000000  0.5070910000000 1.0
C      1  0.5322160000000  0.4169440000000  0.4933250000000 1.0
C      1  0.4931610000000  0.5318920000000  0.4154430000000 1.0
C      1  0.4149690000000  0.4932270000000  0.5341010000000 1.0
C      1  0.5320270000000  0.5847680000000  0.5071850000000 1.0
C      1  0.4662200000000  0.5839020000000  0.4931080000000 1.0
C      1  0.4662460000000  0.4148340000000  0.5069840000000 1.0
C      1  0.4933620000000  0.4661110000000  0.5853770000000 1.0
C      1  0.5072380000000  0.4660840000000  0.4163100000000 1.0
C      1  0.5070210000000  0.5320810000000  0.5832670000000 1.0
C      1  0.4170790000000  0.5068860000000  0.4681300000000 1.0
C      1  0.5840370000000  0.5071030000000  0.5341270000000 1.0
C      1  0.5849030000000  0.4930250000000  0.4683190000000 1.0
C      1  0.4663280000000  0.4158280000000  0.4930270000000 1.0
C      1  0.5069480000000  0.5319660000000  0.4157200000000 1.0
C      1  0.5845270000000  0.4931490000000  0.5341300000000 1.0
C      1  0.4662160000000  0.5843920000000  0.5070620000000 1.0
C      1  0.5321010000000  0.5844910000000  0.4933980000000 1.0
C      1  0.5320100000000  0.4166340000000  0.5070960000000 1.0
C      1  0.5073190000000  0.4661930000000  0.5843840000000 1.0
C      1  0.4932840000000  0.4660810000000  0.4158190000000 1.0
C      1  0.4932500000000  0.5318750000000  0.5835770000000 1.0
C      1  0.5846260000000  0.5068130000000  0.4682450000000 1.0
C      1  0.4159630000000  0.5071840000000  0.5340180000000 1.0
C      1  0.4167690000000  0.4931150000000  0.4683360000000 1.0
C      1  0.4394430000000  0.4835710000000  0.5144220000000 1.0
C      1  0.5149330000000  0.4421240000000  0.4818120000000 1.0
C      1  0.4816510000000  0.5148210000000  0.4409350000000 1.0
C      1  0.4422590000000  0.5183990000000  0.4854130000000 1.0
C      1  0.5596680000000  0.5165030000000  0.5133550000000 1.0
C      1  0.5594110000000  0.4815150000000  0.4853900000000 1.0
C      1  0.5149560000000  0.5592760000000  0.5186950000000 1.0
C      1  0.4869910000000  0.5595330000000  0.4837080000000 1.0
C      1  0.4859240000000  0.4393080000000  0.5166400000000 1.0
C      1  0.4837060000000  0.4857890000000  0.5609030000000 1.0
C      1  0.5166380000000  0.4868560000000  0.4406780000000 1.0
C      1  0.5185340000000  0.5147980000000  0.5580870000000 1.0
C      1  0.5599800000000  0.4838350000000  0.5132620000000 1.0
C      1  0.4865430000000  0.4409360000000  0.4841220000000 1.0
C      1  0.5192090000000  0.5153670000000  0.4409390000000 1.0
C      1  0.5594070000000  0.5190730000000  0.4848440000000 1.0
C      1  0.4410710000000  0.5160890000000  0.5138030000000 1.0
C      1  0.4413390000000  0.4810750000000  0.4861810000000 1.0
C      1  0.4870840000000  0.5598450000000  0.5163760000000 1.0
C      1  0.5155030000000  0.5592720000000  0.4811380000000 1.0
C      1  0.5141650000000  0.4412040000000  0.5191370000000 1.0
C      1  0.5162240000000  0.4864080000000  0.5592750000000 1.0
C      1  0.4839700000000  0.4869490000000  0.4403660000000 1.0
C      1  0.4812100000000  0.5140300000000  0.5590070000000 1.0
C      1  0.5066510000000  0.5844160000000  0.5352120000000 1.0
C      1  0.5351870000000  0.5069530000000  0.5838420000000 1.0
C      1  0.5842380000000  0.5358020000000  0.5083690000000 1.0
C      1  0.5070880000000  0.4163690000000  0.4651590000000 1.0
C      1  0.4918290000000  0.4160120000000  0.5359700000000 1.0
C      1  0.4919770000000  0.5841030000000  0.4644090000000 1.0
C      1  0.5359370000000  0.4918410000000  0.4161080000000 1.0
C      1  0.4643770000000  0.4916940000000  0.5841990000000 1.0
C      1  0.4651340000000  0.5065160000000  0.4157950000000 1.0
C      1  0.5845510000000  0.4649990000000  0.4936950000000 1.0
C      1  0.4161470000000  0.4642420000000  0.5085170000000 1.0
C      1  0.4165040000000  0.5350520000000  0.4932580000000 1.0
C      1  0.4917190000000  0.5840300000000  0.5359860000000 1.0
C      1  0.4651870000000  0.5065810000000  0.5842980000000 1.0
C      1  0.4166530000000  0.5358650000000  0.5082680000000 1.0
C      1  0.4920780000000  0.4165170000000  0.4643470000000 1.0
C      1  0.5067160000000  0.4159130000000  0.5351600000000 1.0
C      1  0.5069210000000  0.5845570000000  0.4651700000000 1.0
C      1  0.4643600000000  0.4915840000000  0.4161810000000 1.0
C      1  0.5360000000000  0.4919430000000  0.5836940000000 1.0
C      1  0.5351760000000  0.5067850000000  0.4156540000000 1.0
C      1  0.4160480000000  0.4650520000000  0.4936300000000 1.0
C      1  0.5841650000000  0.4642250000000  0.5086270000000 1.0
C      1  0.5846920000000  0.5350410000000  0.4934260000000 1.0
C      1  0.5087060000000  0.4663670000000  0.4522050000000 1.0
C      1  0.4527100000000  0.5089860000000  0.4655640000000 1.0
C      1  0.4648410000000  0.4502310000000  0.5086940000000 1.0
C      1  0.5091210000000  0.5346470000000  0.5476360000000 1.0
C      1  0.4925900000000  0.5352790000000  0.4500580000000 1.0
C      1  0.4916530000000  0.4647060000000  0.5499800000000 1.0
C      1  0.4503660000000  0.4915180000000  0.5355050000000 1.0
C      1  0.5502880000000  0.4924550000000  0.4649320000000 1.0
C      1  0.5481420000000  0.5085710000000  0.5338440000000 1.0
C      1  0.4665030000000  0.5480060000000  0.4916400000000 1.0
C      1  0.5354140000000  0.5501530000000  0.5077560000000 1.0
C      1  0.5347820000000  0.4525750000000  0.4912260000000 1.0
C      1  0.4921580000000  0.4657560000000  0.4510490000000 1.0
C      1  0.5491670000000  0.5091990000000  0.4650830000000 1.0
C      1  0.5348050000000  0.4512870000000  0.5080370000000 1.0
C      1  0.4923090000000  0.5346700000000  0.5489240000000 1.0
C      1  0.5093340000000  0.5351280000000  0.4511800000000 1.0
C      1  0.5082710000000  0.4654910000000  0.5481780000000 1.0
C      1  0.5492970000000  0.4920230000000  0.5344550000000 1.0
C      1  0.4514220000000  0.4921740000000  0.4655410000000 1.0
C      1  0.4521680000000  0.5081360000000  0.5347200000000 1.0
C      1  0.5352630000000  0.5490310000000  0.4910120000000 1.0
C      1  0.4658910000000  0.5491620000000  0.5081880000000 1.0
C      1  0.4656260000000  0.4520330000000  0.4920750000000 1.0
C      1  0.4419190000000  0.5322780000000  0.4636990000000 1.0
C      1  0.4647840000000  0.4408370000000  0.5320850000000 1.0
C      1  0.5320360000000  0.4650370000000  0.4417590000000 1.0
C      1  0.4409720000000  0.4681260000000  0.5355620000000 1.0
C      1  0.5595410000000  0.4681330000000  0.4636700000000 1.0
C      1  0.5585870000000  0.5319010000000  0.5351740000000 1.0
C      1  0.4651720000000  0.5584520000000  0.4683100000000 1.0
C      1  0.5366760000000  0.5594050000000  0.5320780000000 1.0
C      1  0.5366470000000  0.4417840000000  0.4679330000000 1.0
C      1  0.5324130000000  0.5365120000000  0.5584270000000 1.0
C      1  0.4682680000000  0.5365410000000  0.4408060000000 1.0
C      1  0.4682610000000  0.4646490000000  0.5593740000000 1.0
C      1  0.5596210000000  0.5326850000000  0.4630390000000 1.0
C      1  0.5358230000000  0.4419860000000  0.5320870000000 1.0
C      1  0.4688600000000  0.4651090000000  0.4414660000000 1.0
C      1  0.5588810000000  0.4687250000000  0.5351020000000 1.0
C      1  0.4421220000000  0.4681240000000  0.4645230000000 1.0
C      1  0.4418790000000  0.5316280000000  0.5351610000000 1.0
C      1  0.5373070000000  0.5594850000000  0.4675260000000 1.0
C      1  0.4652440000000  0.5587460000000  0.5314860000000 1.0
C      1  0.4651850000000  0.4417430000000  0.4685830000000 1.0
C      1  0.4682590000000  0.5356880000000  0.5582250000000 1.0
C      1  0.5328200000000  0.5371720000000  0.4407260000000 1.0
C      1  0.5317630000000  0.4650500000000  0.5584680000000 1.0
C      1  0.4659760000000  0.5741670000000  0.5167800000000 1.0
C      1  0.5165580000000  0.4656430000000  0.5737550000000 1.0
C      1  0.5753130000000  0.5167880000000  0.4669190000000 1.0
C      1  0.4657780000000  0.4264560000000  0.4837880000000 1.0
C      1  0.5325370000000  0.4259550000000  0.5171780000000 1.0
C      1  0.5334270000000  0.5751780000000  0.4834230000000 1.0
C      1  0.5169230000000  0.5332920000000  0.4250330000000 1.0
C      1  0.4831680000000  0.5324020000000  0.5742560000000 1.0
C      1  0.4835660000000  0.4658410000000  0.4260440000000 1.0
C      1  0.5743020000000  0.4834310000000  0.5343700000000 1.0
C      1  0.4260900000000  0.4830330000000  0.4678090000000 1.0
C      1  0.4265910000000  0.5164230000000  0.5345680000000 1.0
C      1  0.5329040000000  0.5754720000000  0.5172430000000 1.0
C      1  0.4835290000000  0.4653830000000  0.5754130000000 1.0
C      1  0.4265380000000  0.5167900000000  0.4670070000000 1.0
C      1  0.5333390000000  0.4264030000000  0.4834210000000 1.0
C      1  0.4655180000000  0.4247980000000  0.5168170000000 1.0
C      1  0.4658530000000  0.5735460000000  0.4835440000000 1.0
C      1  0.4831030000000  0.5327690000000  0.4247390000000 1.0
C      1  0.5169260000000  0.5332040000000  0.5738080000000 1.0
C      1  0.5168020000000  0.4657180000000  0.4266650000000 1.0
C      1  0.4249330000000  0.4833940000000  0.5348280000000 1.0
C      1  0.5756070000000  0.4829670000000  0.4674420000000 1.0
C      1  0.5736810000000  0.5166670000000  0.5344930000000 1.0
C      1  0.5074090000000  0.5088480000000  0.4373540000000 1.0
C      1  0.4307340000000  0.5082600000000  0.5055610000000 1.0
C      1  0.5079300000000  0.4376350000000  0.5072090000000 1.0
C      1  0.5083950000000  0.4946500000000  0.5696130000000 1.0
C      1  0.4922310000000  0.4949680000000  0.4304480000000 1.0
C      1  0.4931380000000  0.5077950000000  0.5625760000000 1.0
C      1  0.4377710000000  0.4930030000000  0.4924160000000 1.0
C      1  0.5698990000000  0.4920960000000  0.5052430000000 1.0
C      1  0.5629930000000  0.5072740000000  0.4913630000000 1.0
C      1  0.5089830000000  0.5628570000000  0.4929370000000 1.0
C      1  0.4951030000000  0.5697640000000  0.5081150000000 1.0
C      1  0.4947850000000  0.4305980000000  0.4919510000000 1.0
C      1  0.4935620000000  0.5088080000000  0.4370660000000 1.0
C      1  0.5697080000000  0.5084110000000  0.5052650000000 1.0
C      1  0.4945030000000  0.4301910000000  0.5081410000000 1.0
C      1  0.4922050000000  0.4943680000000  0.5700200000000 1.0
C      1  0.5085460000000  0.4949460000000  0.4306380000000 1.0
C      1  0.5069840000000  0.5085050000000  0.5628150000000 1.0
C      1  0.5632800000000  0.4934270000000  0.4914030000000 1.0
C      1  0.4303260000000  0.4920700000000  0.5058430000000 1.0
C      1  0.4375320000000  0.5068490000000  0.4917060000000 1.0
C      1  0.4950810000000  0.5695730000000  0.4918000000000 1.0
C      1  0.5089430000000  0.5631450000000  0.5067840000000 1.0
C      1  0.5086400000000  0.4373960000000  0.4933620000000 1.0
C      1  0.5195080000000  0.4873040000000  0.5084820000000 1.0
C      1  0.5061270000000  0.5243950000000  0.4848010000000 1.0
C      1  0.4876170000000  0.5057700000000  0.5331830000000 1.0
C      1  0.5245310000000  0.5154100000000  0.4942200000000 1.0
C      1  0.4806460000000  0.5099910000000  0.5078680000000 1.0
C      1  0.4671630000000  0.4874820000000  0.4944410000000 1.0
C      1  0.5059050000000  0.4670280000000  0.5127300000000 1.0
C      1  0.4924780000000  0.4805110000000  0.4902210000000 1.0
C      1  0.4918640000000  0.5193730000000  0.5129070000000 1.0
C      1  0.4874390000000  0.4917290000000  0.4808380000000 1.0
C      1  0.5101260000000  0.4923430000000  0.5197000000000 1.0
C      1  0.5155450000000  0.5059920000000  0.4758160000000 1.0
C      1  0.4738450000000  0.4851140000000  0.5066540000000 1.0
C      1  0.4939040000000  0.5189180000000  0.4886730000000 1.0
C      1  0.5146030000000  0.5045650000000  0.5250920000000 1.0
C      1  0.4752540000000  0.5144680000000  0.4956460000000 1.0
C      1  0.5190530000000  0.5115380000000  0.5064420000000 1.0
C      1  0.5210630000000  0.4885420000000  0.4920160000000 1.0
C      1  0.4936920000000  0.4737100000000  0.5150970000000 1.0
C      1  0.5047000000000  0.4751190000000  0.4857430000000 1.0
C      1  0.5083310000000  0.5209280000000  0.5116690000000 1.0
C      1  0.5116740000000  0.4937690000000  0.4812930000000 1.0
C      1  0.4852490000000  0.4935570000000  0.5265010000000 1.0
C      1  0.4886770000000  0.5081950000000  0.4792830000000 1.0
C      1  0.4735480000000  0.5083430000000  0.4824600000000 1.0
C      1  0.4807880000000  0.4719500000000  0.5080270000000 1.0
C      1  0.5065160000000  0.4821020000000  0.4729550000000 1.0
C      1  0.4720850000000  0.4921840000000  0.5195590000000 1.0
C      1  0.5329820000000  0.4938170000000  0.4847600000000 1.0
C      1  0.5273910000000  0.5063810000000  0.5181090000000 1.0
C      1  0.4822380000000  0.5272560000000  0.4938300000000 1.0
C      1  0.5155860000000  0.5328470000000  0.5063930000000 1.0
C      1  0.5178860000000  0.4734130000000  0.4918680000000 1.0
C      1  0.5084780000000  0.5177510000000  0.5267980000000 1.0
C      1  0.4939530000000  0.5154510000000  0.4673640000000 1.0
C      1  0.4923190000000  0.4806520000000  0.5282610000000 1.0
C      1  0.5289400000000  0.5079590000000  0.4821190000000 1.0
C      1  0.5178600000000  0.4723170000000  0.5062630000000 1.0
C      1  0.4927230000000  0.4843820000000  0.4691240000000 1.0
C      1  0.5312220000000  0.4925880000000  0.5158290000000 1.0
C      1  0.4724520000000  0.4939480000000  0.4824870000000 1.0
C      1  0.4699520000000  0.5058920000000  0.5165470000000 1.0
C      1  0.5182270000000  0.5288040000000  0.4922520000000 1.0
C      1  0.4845170000000  0.5310870000000  0.5076230000000 1.0
C      1  0.4837990000000  0.4698170000000  0.4943190000000 1.0
C      1  0.4940830000000  0.5177240000000  0.5278940000000 1.0
C      1  0.5080940000000  0.5180920000000  0.4714070000000 1.0
C      1  0.5060270000000  0.4836640000000  0.5303940000000 1.0
C      1  0.4162290000000  0.5139220000000  0.5026390000000 1.0
C      1  0.4974180000000  0.4157210000000  0.5139380000000 1.0
C      1  0.4158560000000  0.4862730000000  0.5029280000000 1.0
C      1  0.5844850000000  0.4862670000000  0.5029150000000 1.0
C      1  0.5845110000000  0.5138410000000  0.5027350000000 1.0
C      1  0.4976110000000  0.5843760000000  0.4863700000000 1.0
C      1  0.4974310000000  0.5843500000000  0.5139440000000 1.0
C      1  0.4977080000000  0.4160940000000  0.4862890000000 1.0
C      1  0.5139760000000  0.4974760000000  0.4158350000000 1.0
C      1  0.5140570000000  0.4975730000000  0.5841170000000 1.0
C      1  0.4864020000000  0.4972960000000  0.4158610000000 1.0
C      1  0.4864080000000  0.4972830000000  0.5844900000000 1.0
C      1  0.5486680000000  0.5481430000000  0.5477890000000 1.0
C      1  0.5482790000000  0.4524220000000  0.4516790000000 1.0
C      1  0.4534410000000  0.4533060000000  0.5469060000000 1.0
C      1  0.4525570000000  0.5485330000000  0.4520680000000 1.0
C      1  0.4528190000000  0.5475620000000  0.5469170000000 1.0
C      1  0.4534290000000  0.4526840000000  0.4526490000000 1.0
C      1  0.5476970000000  0.4532940000000  0.5475270000000 1.0
C      1  0.5492200000000  0.5490840000000  0.4511270000000 1.0
END
