TITL C-1887013-2217-59 5.67237989203655e-07 1000000 -2537.02591489759 0 0 360 (Td) n - 1
REM
REM in /nfs/bkarasulu/CARBON/AIRSS/Generating-Clusters/GAP-ML-2020/Higher-Symm/Selected-Sizes/TryA-Only_Ih-Symm/Larger-Clusters
REM
REM
REM
REM
REM
REM ./C.cell (2cf5181f0f1d4d5b12b972d32ad12063)
REM
REM compiler GCC version 9.2.1 20190827 (Red Hat 9.2.1-1)
REM options -cpp -mtune=generic -march=x86-64 -g -O0 -fpre-include=/usr/include/finclude/math-vector-fortran.h
REM seed 971827268 1782181710 -607423525 -1493084545 -1964202531 -1011671059 -984733306 2043540927 671648670 -516434094 -1812121527 -1494900077 -1974877390 524277544 -1599272613 -266185669 -384153038 -464697615 2143907734 2052709750 509822612 -646749999 -79141687 -865937866 -1369946027 1288291781 -861070446 2016623180 -1095240622 1408538674 -1315642731 -311620060 -823998746
REM
CELL 1.54180  100.00000  100.00000  100.00000   90.00000   90.00000   90.00000
LATT -1
SFAC C  
C      1  0.5597440000000  0.5394340000000  0.4867220000000 1.0
C      1  0.5394340000000  0.4867220000000  0.5597440000000 1.0
C      1  0.4867220000000  0.5597440000000  0.5394340000000 1.0
C      1  0.4402560000000  0.5394340000000  0.5132780000000 1.0
C      1  0.4402560000000  0.4605660000000  0.4867220000000 1.0
C      1  0.5597440000000  0.4605660000000  0.5132780000000 1.0
C      1  0.4605660000000  0.4867220000000  0.4402560000000 1.0
C      1  0.4605660000000  0.5132780000000  0.5597440000000 1.0
C      1  0.5394340000000  0.5132780000000  0.4402560000000 1.0
C      1  0.5132780000000  0.5597440000000  0.4605660000000 1.0
C      1  0.5132780000000  0.4402560000000  0.5394340000000 1.0
C      1  0.4867220000000  0.4402560000000  0.4605660000000 1.0
C      1  0.4867220000000  0.5394340000000  0.5597440000000 1.0
C      1  0.5597440000000  0.4867220000000  0.5394340000000 1.0
C      1  0.5394340000000  0.5597440000000  0.4867220000000 1.0
C      1  0.5132780000000  0.5394340000000  0.4402560000000 1.0
C      1  0.4867220000000  0.4605660000000  0.4402560000000 1.0
C      1  0.5132780000000  0.4605660000000  0.5597440000000 1.0
C      1  0.4402560000000  0.4867220000000  0.4605660000000 1.0
C      1  0.5597440000000  0.5132780000000  0.4605660000000 1.0
C      1  0.4402560000000  0.5132780000000  0.5394340000000 1.0
C      1  0.4605660000000  0.5597440000000  0.5132780000000 1.0
C      1  0.5394340000000  0.4402560000000  0.5132780000000 1.0
C      1  0.4605660000000  0.4402560000000  0.4867220000000 1.0
C      1  0.4327630000000  0.4942780000000  0.4838110000000 1.0
C      1  0.4942780000000  0.4838110000000  0.4327630000000 1.0
C      1  0.4838110000000  0.4327630000000  0.4942780000000 1.0
C      1  0.5672370000000  0.4942780000000  0.5161890000000 1.0
C      1  0.5672370000000  0.5057220000000  0.4838110000000 1.0
C      1  0.4327630000000  0.5057220000000  0.5161890000000 1.0
C      1  0.5057220000000  0.4838110000000  0.5672370000000 1.0
C      1  0.5057220000000  0.5161890000000  0.4327630000000 1.0
C      1  0.4942780000000  0.5161890000000  0.5672370000000 1.0
C      1  0.5161890000000  0.4327630000000  0.5057220000000 1.0
C      1  0.5161890000000  0.5672370000000  0.4942780000000 1.0
C      1  0.4838110000000  0.5672370000000  0.5057220000000 1.0
C      1  0.4838110000000  0.4942780000000  0.4327630000000 1.0
C      1  0.4327630000000  0.4838110000000  0.4942780000000 1.0
C      1  0.4942780000000  0.4327630000000  0.4838110000000 1.0
C      1  0.5161890000000  0.4942780000000  0.5672370000000 1.0
C      1  0.4838110000000  0.5057220000000  0.5672370000000 1.0
C      1  0.5161890000000  0.5057220000000  0.4327630000000 1.0
C      1  0.5672370000000  0.4838110000000  0.5057220000000 1.0
C      1  0.4327630000000  0.5161890000000  0.5057220000000 1.0
C      1  0.5672370000000  0.5161890000000  0.4942780000000 1.0
C      1  0.5057220000000  0.4327630000000  0.5161890000000 1.0
C      1  0.4942780000000  0.5672370000000  0.5161890000000 1.0
C      1  0.5057220000000  0.5672370000000  0.4838110000000 1.0
C      1  0.4546390000000  0.5554040000000  0.4648720000000 1.0
C      1  0.5554040000000  0.4648720000000  0.4546390000000 1.0
C      1  0.4648720000000  0.4546390000000  0.5554040000000 1.0
C      1  0.5453610000000  0.5554040000000  0.5351280000000 1.0
C      1  0.5453610000000  0.4445960000000  0.4648720000000 1.0
C      1  0.4546390000000  0.4445960000000  0.5351280000000 1.0
C      1  0.4445960000000  0.4648720000000  0.5453610000000 1.0
C      1  0.4445960000000  0.5351280000000  0.4546390000000 1.0
C      1  0.5554040000000  0.5351280000000  0.5453610000000 1.0
C      1  0.5351280000000  0.4546390000000  0.4445960000000 1.0
C      1  0.5351280000000  0.5453610000000  0.5554040000000 1.0
C      1  0.4648720000000  0.5453610000000  0.4445960000000 1.0
C      1  0.4648720000000  0.5554040000000  0.4546390000000 1.0
C      1  0.4546390000000  0.4648720000000  0.5554040000000 1.0
C      1  0.5554040000000  0.4546390000000  0.4648720000000 1.0
C      1  0.5351280000000  0.5554040000000  0.5453610000000 1.0
C      1  0.4648720000000  0.4445960000000  0.5453610000000 1.0
C      1  0.5351280000000  0.4445960000000  0.4546390000000 1.0
C      1  0.5453610000000  0.4648720000000  0.4445960000000 1.0
C      1  0.4546390000000  0.5351280000000  0.4445960000000 1.0
C      1  0.5453610000000  0.5351280000000  0.5554040000000 1.0
C      1  0.4445960000000  0.4546390000000  0.5351280000000 1.0
C      1  0.5554040000000  0.5453610000000  0.5351280000000 1.0
C      1  0.4445960000000  0.5453610000000  0.4648720000000 1.0
C      1  0.4920390000000  0.5648350000000  0.4813740000000 1.0
C      1  0.5648350000000  0.4813740000000  0.4920390000000 1.0
C      1  0.4813740000000  0.4920390000000  0.5648350000000 1.0
C      1  0.5079610000000  0.5648350000000  0.5186260000000 1.0
C      1  0.5079610000000  0.4351650000000  0.4813740000000 1.0
C      1  0.4920390000000  0.4351650000000  0.5186260000000 1.0
C      1  0.4351650000000  0.4813740000000  0.5079610000000 1.0
C      1  0.4351650000000  0.5186260000000  0.4920390000000 1.0
C      1  0.5648350000000  0.5186260000000  0.5079610000000 1.0
C      1  0.5186260000000  0.4920390000000  0.4351650000000 1.0
C      1  0.5186260000000  0.5079610000000  0.5648350000000 1.0
C      1  0.4813740000000  0.5079610000000  0.4351650000000 1.0
C      1  0.4813740000000  0.5648350000000  0.4920390000000 1.0
C      1  0.4920390000000  0.4813740000000  0.5648350000000 1.0
C      1  0.5648350000000  0.4920390000000  0.4813740000000 1.0
C      1  0.5186260000000  0.5648350000000  0.5079610000000 1.0
C      1  0.4813740000000  0.4351650000000  0.5079610000000 1.0
C      1  0.5186260000000  0.4351650000000  0.4920390000000 1.0
C      1  0.5079610000000  0.4813740000000  0.4351650000000 1.0
C      1  0.4920390000000  0.5186260000000  0.4351650000000 1.0
C      1  0.5079610000000  0.5186260000000  0.5648350000000 1.0
C      1  0.4351650000000  0.4920390000000  0.5186260000000 1.0
C      1  0.5648350000000  0.5079610000000  0.5186260000000 1.0
C      1  0.4351650000000  0.5079610000000  0.4813740000000 1.0
C      1  0.5098800000000  0.4425480000000  0.4679760000000 1.0
C      1  0.4425480000000  0.4679760000000  0.5098800000000 1.0
C      1  0.4679760000000  0.5098800000000  0.4425480000000 1.0
C      1  0.4901200000000  0.4425480000000  0.5320240000000 1.0
C      1  0.4901200000000  0.5574520000000  0.4679760000000 1.0
C      1  0.5098800000000  0.5574520000000  0.5320240000000 1.0
C      1  0.5574520000000  0.4679760000000  0.4901200000000 1.0
C      1  0.5574520000000  0.5320240000000  0.5098800000000 1.0
C      1  0.4425480000000  0.5320240000000  0.4901200000000 1.0
C      1  0.5320240000000  0.5098800000000  0.5574520000000 1.0
C      1  0.5320240000000  0.4901200000000  0.4425480000000 1.0
C      1  0.4679760000000  0.4901200000000  0.5574520000000 1.0
C      1  0.4679760000000  0.4425480000000  0.5098800000000 1.0
C      1  0.5098800000000  0.4679760000000  0.4425480000000 1.0
C      1  0.4425480000000  0.5098800000000  0.4679760000000 1.0
C      1  0.5320240000000  0.4425480000000  0.4901200000000 1.0
C      1  0.4679760000000  0.5574520000000  0.4901200000000 1.0
C      1  0.5320240000000  0.5574520000000  0.5098800000000 1.0
C      1  0.4901200000000  0.4679760000000  0.5574520000000 1.0
C      1  0.5098800000000  0.5320240000000  0.5574520000000 1.0
C      1  0.4901200000000  0.5320240000000  0.4425480000000 1.0
C      1  0.5574520000000  0.5098800000000  0.5320240000000 1.0
C      1  0.4425480000000  0.4901200000000  0.5320240000000 1.0
C      1  0.5574520000000  0.4901200000000  0.4679760000000 1.0
C      1  0.5556240000000  0.5353400000000  0.5243200000000 1.0
C      1  0.5353400000000  0.5243200000000  0.5556240000000 1.0
C      1  0.5243200000000  0.5556240000000  0.5353400000000 1.0
C      1  0.4443760000000  0.5353400000000  0.4756800000000 1.0
C      1  0.4443760000000  0.4646600000000  0.5243200000000 1.0
C      1  0.5556240000000  0.4646600000000  0.4756800000000 1.0
C      1  0.4646600000000  0.5243200000000  0.4443760000000 1.0
C      1  0.4646600000000  0.4756800000000  0.5556240000000 1.0
C      1  0.5353400000000  0.4756800000000  0.4443760000000 1.0
C      1  0.4756800000000  0.5556240000000  0.4646600000000 1.0
C      1  0.4756800000000  0.4443760000000  0.5353400000000 1.0
C      1  0.5243200000000  0.4443760000000  0.4646600000000 1.0
C      1  0.5243200000000  0.5353400000000  0.5556240000000 1.0
C      1  0.5556240000000  0.5243200000000  0.5353400000000 1.0
C      1  0.5353400000000  0.5556240000000  0.5243200000000 1.0
C      1  0.4756800000000  0.5353400000000  0.4443760000000 1.0
C      1  0.5243200000000  0.4646600000000  0.4443760000000 1.0
C      1  0.4756800000000  0.4646600000000  0.5556240000000 1.0
C      1  0.4443760000000  0.5243200000000  0.4646600000000 1.0
C      1  0.5556240000000  0.4756800000000  0.4646600000000 1.0
C      1  0.4443760000000  0.4756800000000  0.5353400000000 1.0
C      1  0.4646600000000  0.5556240000000  0.4756800000000 1.0
C      1  0.5353400000000  0.4443760000000  0.4756800000000 1.0
C      1  0.4646600000000  0.4443760000000  0.5243200000000 1.0
C      1  0.4544880000000  0.4899480000000  0.5218070000000 1.0
C      1  0.4899480000000  0.5218070000000  0.4544880000000 1.0
C      1  0.5218070000000  0.4544880000000  0.4899480000000 1.0
C      1  0.5455120000000  0.4899480000000  0.4781930000000 1.0
C      1  0.5455120000000  0.5100520000000  0.5218070000000 1.0
C      1  0.4544880000000  0.5100520000000  0.4781930000000 1.0
C      1  0.5100520000000  0.5218070000000  0.5455120000000 1.0
C      1  0.5100520000000  0.4781930000000  0.4544880000000 1.0
C      1  0.4899480000000  0.4781930000000  0.5455120000000 1.0
C      1  0.4781930000000  0.4544880000000  0.5100520000000 1.0
C      1  0.4781930000000  0.5455120000000  0.4899480000000 1.0
C      1  0.5218070000000  0.5455120000000  0.5100520000000 1.0
C      1  0.5218070000000  0.4899480000000  0.4544880000000 1.0
C      1  0.4544880000000  0.5218070000000  0.4899480000000 1.0
C      1  0.4899480000000  0.4544880000000  0.5218070000000 1.0
C      1  0.4781930000000  0.4899480000000  0.5455120000000 1.0
C      1  0.5218070000000  0.5100520000000  0.5455120000000 1.0
C      1  0.4781930000000  0.5100520000000  0.4544880000000 1.0
C      1  0.5455120000000  0.5218070000000  0.5100520000000 1.0
C      1  0.4544880000000  0.4781930000000  0.5100520000000 1.0
C      1  0.5455120000000  0.4781930000000  0.4899480000000 1.0
C      1  0.5100520000000  0.4544880000000  0.4781930000000 1.0
C      1  0.4899480000000  0.5455120000000  0.4781930000000 1.0
C      1  0.5100520000000  0.5455120000000  0.5218070000000 1.0
C      1  0.4812910000000  0.4988850000000  0.4630700000000 1.0
C      1  0.4988850000000  0.4630700000000  0.4812910000000 1.0
C      1  0.4630700000000  0.4812910000000  0.4988850000000 1.0
C      1  0.5187090000000  0.4988850000000  0.5369300000000 1.0
C      1  0.5187090000000  0.5011150000000  0.4630700000000 1.0
C      1  0.4812910000000  0.5011150000000  0.5369300000000 1.0
C      1  0.5011150000000  0.4630700000000  0.5187090000000 1.0
C      1  0.5011150000000  0.5369300000000  0.4812910000000 1.0
C      1  0.4988850000000  0.5369300000000  0.5187090000000 1.0
C      1  0.5369300000000  0.4812910000000  0.5011150000000 1.0
C      1  0.5369300000000  0.5187090000000  0.4988850000000 1.0
C      1  0.4630700000000  0.5187090000000  0.5011150000000 1.0
C      1  0.4630700000000  0.4988850000000  0.4812910000000 1.0
C      1  0.4812910000000  0.4630700000000  0.4988850000000 1.0
C      1  0.4988850000000  0.4812910000000  0.4630700000000 1.0
C      1  0.5369300000000  0.4988850000000  0.5187090000000 1.0
C      1  0.4630700000000  0.5011150000000  0.5187090000000 1.0
C      1  0.5369300000000  0.5011150000000  0.4812910000000 1.0
C      1  0.5187090000000  0.4630700000000  0.5011150000000 1.0
C      1  0.4812910000000  0.5369300000000  0.5011150000000 1.0
C      1  0.5187090000000  0.5369300000000  0.4988850000000 1.0
C      1  0.5011150000000  0.4812910000000  0.5369300000000 1.0
C      1  0.4988850000000  0.5187090000000  0.5369300000000 1.0
C      1  0.5011150000000  0.5187090000000  0.4630700000000 1.0
C      1  0.5263050000000  0.4840960000000  0.5648340000000 1.0
C      1  0.4840960000000  0.5648340000000  0.5263050000000 1.0
C      1  0.5648340000000  0.5263050000000  0.4840960000000 1.0
C      1  0.4736950000000  0.4840960000000  0.4351660000000 1.0
C      1  0.4736950000000  0.5159040000000  0.5648340000000 1.0
C      1  0.5263050000000  0.5159040000000  0.4351660000000 1.0
C      1  0.5159040000000  0.5648340000000  0.4736950000000 1.0
C      1  0.5159040000000  0.4351660000000  0.5263050000000 1.0
C      1  0.4840960000000  0.4351660000000  0.4736950000000 1.0
C      1  0.4351660000000  0.5263050000000  0.5159040000000 1.0
C      1  0.4351660000000  0.4736950000000  0.4840960000000 1.0
C      1  0.5648340000000  0.4736950000000  0.5159040000000 1.0
C      1  0.5648340000000  0.4840960000000  0.5263050000000 1.0
C      1  0.5263050000000  0.5648340000000  0.4840960000000 1.0
C      1  0.4840960000000  0.5263050000000  0.5648340000000 1.0
C      1  0.4351660000000  0.4840960000000  0.4736950000000 1.0
C      1  0.5648340000000  0.5159040000000  0.4736950000000 1.0
C      1  0.4351660000000  0.5159040000000  0.5263050000000 1.0
C      1  0.4736950000000  0.5648340000000  0.5159040000000 1.0
C      1  0.5263050000000  0.4351660000000  0.5159040000000 1.0
C      1  0.4736950000000  0.4351660000000  0.4840960000000 1.0
C      1  0.5159040000000  0.5263050000000  0.4351660000000 1.0
C      1  0.4840960000000  0.4736950000000  0.4351660000000 1.0
C      1  0.5159040000000  0.4736950000000  0.5648340000000 1.0
C      1  0.4590580000000  0.5209150000000  0.4688370000000 1.0
C      1  0.5209150000000  0.4688370000000  0.4590580000000 1.0
C      1  0.4688370000000  0.4590580000000  0.5209150000000 1.0
C      1  0.5409420000000  0.5209150000000  0.5311630000000 1.0
C      1  0.5409420000000  0.4790850000000  0.4688370000000 1.0
C      1  0.4590580000000  0.4790850000000  0.5311630000000 1.0
C      1  0.4790850000000  0.4688370000000  0.5409420000000 1.0
C      1  0.4790850000000  0.5311630000000  0.4590580000000 1.0
C      1  0.5209150000000  0.5311630000000  0.5409420000000 1.0
C      1  0.5311630000000  0.4590580000000  0.4790850000000 1.0
C      1  0.5311630000000  0.5409420000000  0.5209150000000 1.0
C      1  0.4688370000000  0.5409420000000  0.4790850000000 1.0
C      1  0.4688370000000  0.5209150000000  0.4590580000000 1.0
C      1  0.4590580000000  0.4688370000000  0.5209150000000 1.0
C      1  0.5209150000000  0.4590580000000  0.4688370000000 1.0
C      1  0.5311630000000  0.5209150000000  0.5409420000000 1.0
C      1  0.4688370000000  0.4790850000000  0.5409420000000 1.0
C      1  0.5311630000000  0.4790850000000  0.4590580000000 1.0
C      1  0.5409420000000  0.4688370000000  0.4790850000000 1.0
C      1  0.4590580000000  0.5311630000000  0.4790850000000 1.0
C      1  0.5409420000000  0.5311630000000  0.5209150000000 1.0
C      1  0.4790850000000  0.4590580000000  0.5311630000000 1.0
C      1  0.5209150000000  0.5409420000000  0.5311630000000 1.0
C      1  0.4790850000000  0.5409420000000  0.4688370000000 1.0
C      1  0.4417010000000  0.4518210000000  0.4762010000000 1.0
C      1  0.4518210000000  0.4762010000000  0.4417010000000 1.0
C      1  0.4762010000000  0.4417010000000  0.4518210000000 1.0
C      1  0.5582990000000  0.4518210000000  0.5237990000000 1.0
C      1  0.5582990000000  0.5481790000000  0.4762010000000 1.0
C      1  0.4417010000000  0.5481790000000  0.5237990000000 1.0
C      1  0.5481790000000  0.4762010000000  0.5582990000000 1.0
C      1  0.5481790000000  0.5237990000000  0.4417010000000 1.0
C      1  0.4518210000000  0.5237990000000  0.5582990000000 1.0
C      1  0.5237990000000  0.4417010000000  0.5481790000000 1.0
C      1  0.5237990000000  0.5582990000000  0.4518210000000 1.0
C      1  0.4762010000000  0.5582990000000  0.5481790000000 1.0
C      1  0.4762010000000  0.4518210000000  0.4417010000000 1.0
C      1  0.4417010000000  0.4762010000000  0.4518210000000 1.0
C      1  0.4518210000000  0.4417010000000  0.4762010000000 1.0
C      1  0.5237990000000  0.4518210000000  0.5582990000000 1.0
C      1  0.4762010000000  0.5481790000000  0.5582990000000 1.0
C      1  0.5237990000000  0.5481790000000  0.4417010000000 1.0
C      1  0.5582990000000  0.4762010000000  0.5481790000000 1.0
C      1  0.4417010000000  0.5237990000000  0.5481790000000 1.0
C      1  0.5582990000000  0.5237990000000  0.4518210000000 1.0
C      1  0.5481790000000  0.4417010000000  0.5237990000000 1.0
C      1  0.4518210000000  0.5582990000000  0.5237990000000 1.0
C      1  0.5481790000000  0.5582990000000  0.4762010000000 1.0
C      1  0.5586800000000  0.5383190000000  0.4519540000000 1.0
C      1  0.5383190000000  0.4519540000000  0.5586800000000 1.0
C      1  0.4519540000000  0.5586800000000  0.5383190000000 1.0
C      1  0.4413200000000  0.5383190000000  0.5480460000000 1.0
C      1  0.4413200000000  0.4616810000000  0.4519540000000 1.0
C      1  0.5586800000000  0.4616810000000  0.5480460000000 1.0
C      1  0.4616810000000  0.4519540000000  0.4413200000000 1.0
C      1  0.4616810000000  0.5480460000000  0.5586800000000 1.0
C      1  0.5383190000000  0.5480460000000  0.4413200000000 1.0
C      1  0.5480460000000  0.5586800000000  0.4616810000000 1.0
C      1  0.5480460000000  0.4413200000000  0.5383190000000 1.0
C      1  0.4519540000000  0.4413200000000  0.4616810000000 1.0
C      1  0.4519540000000  0.5383190000000  0.5586800000000 1.0
C      1  0.5586800000000  0.4519540000000  0.5383190000000 1.0
C      1  0.5383190000000  0.5586800000000  0.4519540000000 1.0
C      1  0.5480460000000  0.5383190000000  0.4413200000000 1.0
C      1  0.4519540000000  0.4616810000000  0.4413200000000 1.0
C      1  0.5480460000000  0.4616810000000  0.5586800000000 1.0
C      1  0.4413200000000  0.4519540000000  0.4616810000000 1.0
C      1  0.5586800000000  0.5480460000000  0.4616810000000 1.0
C      1  0.4413200000000  0.5480460000000  0.5383190000000 1.0
C      1  0.4616810000000  0.5586800000000  0.5480460000000 1.0
C      1  0.5383190000000  0.4413200000000  0.5480460000000 1.0
C      1  0.4616810000000  0.4413200000000  0.4519540000000 1.0
C      1  0.5348400000000  0.4856160000000  0.5245060000000 1.0
C      1  0.4856160000000  0.5245060000000  0.5348400000000 1.0
C      1  0.5245060000000  0.5348400000000  0.4856160000000 1.0
C      1  0.4651600000000  0.4856160000000  0.4754940000000 1.0
C      1  0.4651600000000  0.5143840000000  0.5245060000000 1.0
C      1  0.5348400000000  0.5143840000000  0.4754940000000 1.0
C      1  0.5143840000000  0.5245060000000  0.4651600000000 1.0
C      1  0.5143840000000  0.4754940000000  0.5348400000000 1.0
C      1  0.4856160000000  0.4754940000000  0.4651600000000 1.0
C      1  0.4754940000000  0.5348400000000  0.5143840000000 1.0
C      1  0.4754940000000  0.4651600000000  0.4856160000000 1.0
C      1  0.5245060000000  0.4651600000000  0.5143840000000 1.0
C      1  0.5245060000000  0.4856160000000  0.5348400000000 1.0
C      1  0.5348400000000  0.5245060000000  0.4856160000000 1.0
C      1  0.4856160000000  0.5348400000000  0.5245060000000 1.0
C      1  0.4754940000000  0.4856160000000  0.4651600000000 1.0
C      1  0.5245060000000  0.5143840000000  0.4651600000000 1.0
C      1  0.4754940000000  0.5143840000000  0.5348400000000 1.0
C      1  0.4651600000000  0.5245060000000  0.5143840000000 1.0
C      1  0.5348400000000  0.4754940000000  0.5143840000000 1.0
C      1  0.4651600000000  0.4754940000000  0.4856160000000 1.0
C      1  0.5143840000000  0.5348400000000  0.4754940000000 1.0
C      1  0.4856160000000  0.4651600000000  0.4754940000000 1.0
C      1  0.5143840000000  0.4651600000000  0.5245060000000 1.0
C      1  0.5005910000000  0.4463630000000  0.5430110000000 1.0
C      1  0.4463630000000  0.5430110000000  0.5005910000000 1.0
C      1  0.5430110000000  0.5005910000000  0.4463630000000 1.0
C      1  0.4994090000000  0.4463630000000  0.4569890000000 1.0
C      1  0.4994090000000  0.5536370000000  0.5430110000000 1.0
C      1  0.5005910000000  0.5536370000000  0.4569890000000 1.0
C      1  0.5536370000000  0.5430110000000  0.4994090000000 1.0
C      1  0.5536370000000  0.4569890000000  0.5005910000000 1.0
C      1  0.4463630000000  0.4569890000000  0.4994090000000 1.0
C      1  0.4569890000000  0.5005910000000  0.5536370000000 1.0
C      1  0.4569890000000  0.4994090000000  0.4463630000000 1.0
C      1  0.5430110000000  0.4994090000000  0.5536370000000 1.0
C      1  0.5430110000000  0.4463630000000  0.5005910000000 1.0
C      1  0.5005910000000  0.5430110000000  0.4463630000000 1.0
C      1  0.4463630000000  0.5005910000000  0.5430110000000 1.0
C      1  0.4569890000000  0.4463630000000  0.4994090000000 1.0
C      1  0.5430110000000  0.5536370000000  0.4994090000000 1.0
C      1  0.4569890000000  0.5536370000000  0.5005910000000 1.0
C      1  0.4994090000000  0.5430110000000  0.5536370000000 1.0
C      1  0.5005910000000  0.4569890000000  0.5536370000000 1.0
C      1  0.4994090000000  0.4569890000000  0.4463630000000 1.0
C      1  0.5536370000000  0.5005910000000  0.4569890000000 1.0
C      1  0.4463630000000  0.4994090000000  0.4569890000000 1.0
C      1  0.5536370000000  0.4994090000000  0.5430110000000 1.0
C      1  0.5052700000000  0.5150000000000  0.5247490000000 1.0
C      1  0.5150000000000  0.5247490000000  0.5052700000000 1.0
C      1  0.5247490000000  0.5052700000000  0.5150000000000 1.0
C      1  0.4947300000000  0.5150000000000  0.4752510000000 1.0
C      1  0.4947300000000  0.4850000000000  0.5247490000000 1.0
C      1  0.5052700000000  0.4850000000000  0.4752510000000 1.0
C      1  0.4850000000000  0.5247490000000  0.4947300000000 1.0
C      1  0.4850000000000  0.4752510000000  0.5052700000000 1.0
C      1  0.5150000000000  0.4752510000000  0.4947300000000 1.0
C      1  0.4752510000000  0.5052700000000  0.4850000000000 1.0
C      1  0.4752510000000  0.4947300000000  0.5150000000000 1.0
C      1  0.5247490000000  0.4947300000000  0.4850000000000 1.0
C      1  0.5247490000000  0.5150000000000  0.5052700000000 1.0
C      1  0.5052700000000  0.5247490000000  0.5150000000000 1.0
C      1  0.5150000000000  0.5052700000000  0.5247490000000 1.0
C      1  0.4752510000000  0.5150000000000  0.4947300000000 1.0
C      1  0.5247490000000  0.4850000000000  0.4947300000000 1.0
C      1  0.4752510000000  0.4850000000000  0.5052700000000 1.0
C      1  0.4947300000000  0.5247490000000  0.4850000000000 1.0
C      1  0.5052700000000  0.4752510000000  0.4850000000000 1.0
C      1  0.4947300000000  0.4752510000000  0.5150000000000 1.0
C      1  0.4850000000000  0.5052700000000  0.4752510000000 1.0
C      1  0.5150000000000  0.4947300000000  0.4752510000000 1.0
C      1  0.4850000000000  0.4947300000000  0.5247490000000 1.0
END
