TITL C-1892076-7001-83 -2.1879934759015e-11 1000000 -1933.80737711408 0 0 280 (C1) n - 1
REM
REM in /nfs/bkarasulu/CARBON/AIRSS/Generating-Clusters/GAP-ML-2020/Higher-Symm/Selected-Sizes/TryA-Only_Ih-Symm/Larger-Clusters
REM
REM
REM
REM
REM
REM ./C.cell (2cf5181f0f1d4d5b12b972d32ad12063)
REM
REM compiler GCC version 9.2.1 20190827 (Red Hat 9.2.1-1)
REM options -cpp -mtune=generic -march=x86-64 -g -O0 -fpre-include=/usr/include/finclude/math-vector-fortran.h
REM seed 2018250283 -2017934684 -1529587743 1463880958 1781343605 573383464 1989470765 1321611331 1054088883 -661378895 -608497066 1653777853 -1987947463 565120972 -820365502 -1730596177 1444116396 -115592552 1514906326 2000612710 1531886514 1820885747 1378911716 -785021629 17058724 992668736 -1772849820 -1082767342 91239404 663777329 2016054159 266375083 -1963845688
REM
CELL 1.54180  100.00000  100.00000  100.00000   90.00000   90.00000   90.00000
LATT -1
SFAC C  
C      1  0.4649070000000  0.5201370000000  0.5004310000000 1.0
C      1  0.4990530000000  0.4622080000000  0.5193000000000 1.0
C      1  0.5201700000000  0.5009720000000  0.4602100000000 1.0
C      1  0.5342300000000  0.4794430000000  0.4983990000000 1.0
C      1  0.5369890000000  0.5216800000000  0.4995130000000 1.0
C      1  0.4609510000000  0.4778110000000  0.4986500000000 1.0
C      1  0.4997990000000  0.5377440000000  0.5207310000000 1.0
C      1  0.4986020000000  0.4648660000000  0.4768260000000 1.0
C      1  0.5004420000000  0.5363620000000  0.4785760000000 1.0
C      1  0.4798040000000  0.5000150000000  0.4651330000000 1.0
C      1  0.4782560000000  0.4994580000000  0.5332680000000 1.0
C      1  0.5207700000000  0.5006030000000  0.5361910000000 1.0
C      1  0.5186600000000  0.4656620000000  0.4984130000000 1.0
C      1  0.4611240000000  0.4999220000000  0.5197770000000 1.0
C      1  0.5005090000000  0.5205790000000  0.4645300000000 1.0
C      1  0.4787230000000  0.5361370000000  0.5004500000000 1.0
C      1  0.5209360000000  0.5379720000000  0.4995770000000 1.0
C      1  0.4777290000000  0.4616550000000  0.4989270000000 1.0
C      1  0.5366470000000  0.5006520000000  0.5200030000000 1.0
C      1  0.4656690000000  0.4992200000000  0.4806140000000 1.0
C      1  0.5342450000000  0.5004870000000  0.4773770000000 1.0
C      1  0.4982950000000  0.4795590000000  0.4603910000000 1.0
C      1  0.4987720000000  0.4791670000000  0.5328510000000 1.0
C      1  0.4999900000000  0.5213910000000  0.5365860000000 1.0
C      1  0.5124230000000  0.4334860000000  0.4803470000000 1.0
C      1  0.4789590000000  0.5126690000000  0.4350530000000 1.0
C      1  0.4387820000000  0.4774310000000  0.5128700000000 1.0
C      1  0.4895310000000  0.5677250000000  0.4800690000000 1.0
C      1  0.4884810000000  0.4394040000000  0.5227570000000 1.0
C      1  0.5117180000000  0.5615990000000  0.5219020000000 1.0
C      1  0.5230430000000  0.4871410000000  0.4395350000000 1.0
C      1  0.5213060000000  0.5111470000000  0.5607420000000 1.0
C      1  0.4803160000000  0.4901730000000  0.5666640000000 1.0
C      1  0.5613020000000  0.5217210000000  0.5109970000000 1.0
C      1  0.5669410000000  0.4801670000000  0.4900350000000 1.0
C      1  0.4354650000000  0.5215080000000  0.4893620000000 1.0
C      1  0.4353700000000  0.5120420000000  0.4789840000000 1.0
C      1  0.5128350000000  0.4771840000000  0.4394850000000 1.0
C      1  0.4782230000000  0.4381200000000  0.5129310000000 1.0
C      1  0.5669430000000  0.4898400000000  0.4800600000000 1.0
C      1  0.4395470000000  0.4876300000000  0.5228890000000 1.0
C      1  0.5610030000000  0.5114710000000  0.5210080000000 1.0
C      1  0.4893780000000  0.5220880000000  0.4355090000000 1.0
C      1  0.5112120000000  0.5213040000000  0.5610130000000 1.0
C      1  0.4902340000000  0.4804170000000  0.5665380000000 1.0
C      1  0.5218420000000  0.5616830000000  0.5117800000000 1.0
C      1  0.4797660000000  0.5676040000000  0.4898650000000 1.0
C      1  0.5218790000000  0.4351920000000  0.4904830000000 1.0
C      1  0.4437990000000  0.5316880000000  0.4811990000000 1.0
C      1  0.4794130000000  0.4443200000000  0.5333600000000 1.0
C      1  0.5330480000000  0.4780710000000  0.4453020000000 1.0
C      1  0.5610050000000  0.4696670000000  0.4801400000000 1.0
C      1  0.5580670000000  0.5318230000000  0.5211400000000 1.0
C      1  0.4432480000000  0.4677330000000  0.5228030000000 1.0
C      1  0.5215500000000  0.5577940000000  0.5320980000000 1.0
C      1  0.5218080000000  0.4404250000000  0.4705150000000 1.0
C      1  0.4800010000000  0.5606110000000  0.4700320000000 1.0
C      1  0.4701310000000  0.5225560000000  0.4432880000000 1.0
C      1  0.4700360000000  0.4799940000000  0.5617020000000 1.0
C      1  0.5316220000000  0.5211640000000  0.5576910000000 1.0
C      1  0.5316070000000  0.4431940000000  0.4810300000000 1.0
C      1  0.4448190000000  0.4785480000000  0.5331640000000 1.0
C      1  0.4811510000000  0.5321140000000  0.4438660000000 1.0
C      1  0.4697870000000  0.5604460000000  0.4802840000000 1.0
C      1  0.5320500000000  0.5578850000000  0.5215980000000 1.0
C      1  0.4687480000000  0.4422360000000  0.5233110000000 1.0
C      1  0.5577230000000  0.5212980000000  0.5314370000000 1.0
C      1  0.4434060000000  0.5220820000000  0.4702860000000 1.0
C      1  0.5614840000000  0.4798600000000  0.4699860000000 1.0
C      1  0.5221650000000  0.4672980000000  0.4450440000000 1.0
C      1  0.4802750000000  0.4699330000000  0.5616410000000 1.0
C      1  0.5212690000000  0.5315740000000  0.5579920000000 1.0
C      1  0.5134700000000  0.4631530000000  0.5231060000000 1.0
C      1  0.5243020000000  0.5152200000000  0.4615620000000 1.0
C      1  0.4628450000000  0.5252070000000  0.5139500000000 1.0
C      1  0.4852190000000  0.5365970000000  0.5245700000000 1.0
C      1  0.4841940000000  0.4646220000000  0.4731950000000 1.0
C      1  0.5147160000000  0.5370710000000  0.4733760000000 1.0
C      1  0.4729850000000  0.4868380000000  0.4616140000000 1.0
C      1  0.4744150000000  0.5138730000000  0.5348820000000 1.0
C      1  0.5240240000000  0.4860230000000  0.5347740000000 1.0
C      1  0.5351230000000  0.4747530000000  0.5129840000000 1.0
C      1  0.5359210000000  0.5253440000000  0.4849390000000 1.0
C      1  0.4621920000000  0.4747310000000  0.4839760000000 1.0
C      1  0.4621050000000  0.5142860000000  0.5240690000000 1.0
C      1  0.5139490000000  0.5258790000000  0.4624520000000 1.0
C      1  0.5238210000000  0.4638480000000  0.5123070000000 1.0
C      1  0.5354780000000  0.4861060000000  0.5232690000000 1.0
C      1  0.4621010000000  0.4862640000000  0.4732130000000 1.0
C      1  0.5352830000000  0.5148560000000  0.4737800000000 1.0
C      1  0.4836940000000  0.4759240000000  0.4615520000000 1.0
C      1  0.5131920000000  0.4752610000000  0.5341910000000 1.0
C      1  0.4853440000000  0.5246950000000  0.5355910000000 1.0
C      1  0.4735950000000  0.5365880000000  0.5147130000000 1.0
C      1  0.5247120000000  0.5370790000000  0.4849620000000 1.0
C      1  0.4740610000000  0.4633930000000  0.4843150000000 1.0
C      1  0.5015430000000  0.5567200000000  0.4579360000000 1.0
C      1  0.4551860000000  0.5000170000000  0.5581440000000 1.0
C      1  0.5557520000000  0.4581800000000  0.5011790000000 1.0
C      1  0.5000310000000  0.4432450000000  0.4565040000000 1.0
C      1  0.5008790000000  0.5566800000000  0.5468180000000 1.0
C      1  0.4990040000000  0.4448640000000  0.5483020000000 1.0
C      1  0.5461340000000  0.5005830000000  0.5561500000000 1.0
C      1  0.5475960000000  0.4986020000000  0.4451100000000 1.0
C      1  0.4588300000000  0.5009700000000  0.4487030000000 1.0
C      1  0.4503490000000  0.5440190000000  0.5018800000000 1.0
C      1  0.4441070000000  0.4527120000000  0.5022640000000 1.0
C      1  0.5569590000000  0.5466120000000  0.5007060000000 1.0
C      1  0.5575340000000  0.5003260000000  0.4555620000000 1.0
C      1  0.5005880000000  0.4553050000000  0.5581210000000 1.0
C      1  0.4578260000000  0.5561340000000  0.5017680000000 1.0
C      1  0.4493330000000  0.5007400000000  0.4588680000000 1.0
C      1  0.5564900000000  0.5008240000000  0.5460070000000 1.0
C      1  0.4448250000000  0.4983500000000  0.5482060000000 1.0
C      1  0.5007170000000  0.5461400000000  0.5568990000000 1.0
C      1  0.5017510000000  0.5447480000000  0.4502400000000 1.0
C      1  0.5015150000000  0.4528650000000  0.4456960000000 1.0
C      1  0.5435000000000  0.4511170000000  0.5011780000000 1.0
C      1  0.4545580000000  0.4427000000000  0.5019280000000 1.0
C      1  0.5468080000000  0.5571050000000  0.5009720000000 1.0
C      1  0.5011020000000  0.5162450000000  0.4405380000000 1.0
C      1  0.4383100000000  0.5026490000000  0.5053490000000 1.0
C      1  0.5153820000000  0.4422880000000  0.5007320000000 1.0
C      1  0.4949310000000  0.4935660000000  0.4384050000000 1.0
C      1  0.4962840000000  0.5065900000000  0.5591770000000 1.0
C      1  0.5003810000000  0.4836780000000  0.5571340000000 1.0
C      1  0.5596030000000  0.4968180000000  0.5060770000000 1.0
C      1  0.5584870000000  0.5009760000000  0.4830020000000 1.0
C      1  0.4419230000000  0.4988680000000  0.4815800000000 1.0
C      1  0.4837550000000  0.5597290000000  0.5009950000000 1.0
C      1  0.4929760000000  0.4386330000000  0.4957330000000 1.0
C      1  0.5067520000000  0.5612040000000  0.4967860000000 1.0
C      1  0.5055320000000  0.5032610000000  0.4375280000000 1.0
C      1  0.5027750000000  0.4388330000000  0.5062020000000 1.0
C      1  0.4407510000000  0.5157910000000  0.5009740000000 1.0
C      1  0.4816410000000  0.4994480000000  0.4415060000000 1.0
C      1  0.5064490000000  0.4964410000000  0.5589760000000 1.0
C      1  0.4834300000000  0.5005880000000  0.5574740000000 1.0
C      1  0.4967080000000  0.5611010000000  0.5068820000000 1.0
C      1  0.5007810000000  0.5599060000000  0.4838670000000 1.0
C      1  0.4995280000000  0.4398430000000  0.4828550000000 1.0
C      1  0.5577580000000  0.4840200000000  0.5001490000000 1.0
C      1  0.4391960000000  0.4928440000000  0.4947810000000 1.0
C      1  0.5599000000000  0.5069380000000  0.4959290000000 1.0
C      1  0.4859750000000  0.5050350000000  0.4544680000000 1.0
C      1  0.4482540000000  0.4838630000000  0.5032280000000 1.0
C      1  0.5033850000000  0.4541960000000  0.4836530000000 1.0
C      1  0.5148560000000  0.4963990000000  0.4473380000000 1.0
C      1  0.5149940000000  0.5042230000000  0.5491590000000 1.0
C      1  0.4844190000000  0.4944440000000  0.5441260000000 1.0
C      1  0.5499130000000  0.5156680000000  0.5034190000000 1.0
C      1  0.5447630000000  0.4859660000000  0.4936940000000 1.0
C      1  0.4544070000000  0.5133250000000  0.4961100000000 1.0
C      1  0.4955990000000  0.5463400000000  0.4859490000000 1.0
C      1  0.4952770000000  0.4491810000000  0.5143650000000 1.0
C      1  0.5040470000000  0.5507290000000  0.5151990000000 1.0
C      1  0.5030040000000  0.4847520000000  0.4476140000000 1.0
C      1  0.4838810000000  0.4484500000000  0.5033180000000 1.0
C      1  0.4547670000000  0.5042550000000  0.4863900000000 1.0
C      1  0.4963280000000  0.5133780000000  0.4542120000000 1.0
C      1  0.5038990000000  0.5153510000000  0.5494060000000 1.0
C      1  0.4939690000000  0.4849950000000  0.5439630000000 1.0
C      1  0.5152290000000  0.5508410000000  0.5039890000000 1.0
C      1  0.4859540000000  0.5462480000000  0.4956840000000 1.0
C      1  0.5116470000000  0.4551900000000  0.4942640000000 1.0
C      1  0.5448070000000  0.4955800000000  0.4841350000000 1.0
C      1  0.4482360000000  0.4956930000000  0.5144490000000 1.0
C      1  0.5496000000000  0.5045280000000  0.5144380000000 1.0
C      1  0.4526650000000  0.4631680000000  0.4831030000000 1.0
C      1  0.4814710000000  0.4545740000000  0.4621730000000 1.0
C      1  0.4689970000000  0.4909690000000  0.4457400000000 1.0
C      1  0.5458360000000  0.5367480000000  0.4832400000000 1.0
C      1  0.5447460000000  0.4635570000000  0.5177260000000 1.0
C      1  0.4506200000000  0.5368120000000  0.5147300000000 1.0
C      1  0.5191250000000  0.5465090000000  0.4617890000000 1.0
C      1  0.5153560000000  0.4540970000000  0.5351020000000 1.0
C      1  0.4838640000000  0.5460370000000  0.5362350000000 1.0
C      1  0.5363360000000  0.5168120000000  0.4527090000000 1.0
C      1  0.5356340000000  0.4839010000000  0.5443560000000 1.0
C      1  0.4634780000000  0.5156900000000  0.5453050000000 1.0
C      1  0.4625990000000  0.4535580000000  0.4829350000000 1.0
C      1  0.4464770000000  0.4905410000000  0.4689220000000 1.0
C      1  0.4825430000000  0.4640920000000  0.4522210000000 1.0
C      1  0.5363110000000  0.5466690000000  0.4837110000000 1.0
C      1  0.4619280000000  0.5458460000000  0.5191930000000 1.0
C      1  0.5360740000000  0.4519030000000  0.5137990000000 1.0
C      1  0.5456330000000  0.5172550000000  0.4628670000000 1.0
C      1  0.4532180000000  0.5157740000000  0.5361320000000 1.0
C      1  0.5453800000000  0.4846570000000  0.5346830000000 1.0
C      1  0.5146760000000  0.5376430000000  0.4503380000000 1.0
C      1  0.4834440000000  0.5359690000000  0.5456230000000 1.0
C      1  0.5150470000000  0.4642280000000  0.5444170000000 1.0
C      1  0.4862330000000  0.5549620000000  0.4592470000000 1.0
C      1  0.4589140000000  0.4855000000000  0.5561020000000 1.0
C      1  0.5547330000000  0.4590350000000  0.4859750000000 1.0
C      1  0.5148220000000  0.4452690000000  0.4597130000000 1.0
C      1  0.5155030000000  0.5540030000000  0.5439570000000 1.0
C      1  0.4848920000000  0.4484400000000  0.5454600000000 1.0
C      1  0.5434280000000  0.5153440000000  0.5537380000000 1.0
C      1  0.5450680000000  0.4844380000000  0.4487500000000 1.0
C      1  0.4597900000000  0.5159680000000  0.4493880000000 1.0
C      1  0.4500300000000  0.5427340000000  0.4869640000000 1.0
C      1  0.4464600000000  0.4556330000000  0.5167510000000 1.0
C      1  0.5543140000000  0.5437420000000  0.5153540000000 1.0
C      1  0.5558580000000  0.4857330000000  0.4590240000000 1.0
C      1  0.4860070000000  0.4589490000000  0.5560280000000 1.0
C      1  0.4590820000000  0.5545550000000  0.4864420000000 1.0
C      1  0.4495950000000  0.5157360000000  0.4598400000000 1.0
C      1  0.5539120000000  0.5154750000000  0.5433340000000 1.0
C      1  0.4485510000000  0.4842730000000  0.5453650000000 1.0
C      1  0.5154020000000  0.5434480000000  0.5542690000000 1.0
C      1  0.4868240000000  0.5432910000000  0.4500130000000 1.0
C      1  0.5157460000000  0.4554370000000  0.4489070000000 1.0
C      1  0.5425120000000  0.4502130000000  0.4862080000000 1.0
C      1  0.4570700000000  0.4454030000000  0.5167630000000 1.0
C      1  0.5439620000000  0.5542520000000  0.5155620000000 1.0
C      1  0.5305690000000  0.5678890000000  0.4818070000000 1.0
C      1  0.4810190000000  0.5288930000000  0.5658960000000 1.0
C      1  0.5674480000000  0.4820240000000  0.5299020000000 1.0
C      1  0.4700620000000  0.4336610000000  0.4804710000000 1.0
C      1  0.4713320000000  0.5673490000000  0.5230960000000 1.0
C      1  0.5268020000000  0.4315260000000  0.5269870000000 1.0
C      1  0.5214100000000  0.4711510000000  0.5658540000000 1.0
C      1  0.5274220000000  0.5268990000000  0.4304970000000 1.0
C      1  0.4842090000000  0.4644270000000  0.4291800000000 1.0
C      1  0.4300560000000  0.5152910000000  0.5348920000000 1.0
C      1  0.4297390000000  0.4724490000000  0.4732850000000 1.0
C      1  0.5667010000000  0.5215050000000  0.4709290000000 1.0
C      1  0.5660840000000  0.5295340000000  0.4808450000000 1.0
C      1  0.5294210000000  0.4810410000000  0.5654410000000 1.0
C      1  0.4815090000000  0.5674650000000  0.5308840000000 1.0
C      1  0.4294100000000  0.4642520000000  0.4837670000000 1.0
C      1  0.5671200000000  0.4721180000000  0.5217600000000 1.0
C      1  0.4306670000000  0.5261170000000  0.5272680000000 1.0
C      1  0.4711810000000  0.5207910000000  0.5665200000000 1.0
C      1  0.5351540000000  0.5160800000000  0.4297600000000 1.0
C      1  0.4738960000000  0.4729180000000  0.4290320000000 1.0
C      1  0.5160410000000  0.4308250000000  0.5346380000000 1.0
C      1  0.4779150000000  0.4334570000000  0.4703920000000 1.0
C      1  0.5228100000000  0.5678770000000  0.4716020000000 1.0
C      1  0.4861000000000  0.4414170000000  0.4619000000000 1.0
C      1  0.4663640000000  0.4808910000000  0.4355340000000 1.0
C      1  0.4405810000000  0.4602660000000  0.4904190000000 1.0
C      1  0.5155430000000  0.5602160000000  0.4624240000000 1.0
C      1  0.5095000000000  0.4418750000000  0.5391490000000 1.0
C      1  0.4892820000000  0.5587990000000  0.5385320000000 1.0
C      1  0.5396300000000  0.5097030000000  0.4408870000000 1.0
C      1  0.5376750000000  0.4889090000000  0.5574260000000 1.0
C      1  0.4621000000000  0.5130270000000  0.5589580000000 1.0
C      1  0.5586780000000  0.5383020000000  0.4888320000000 1.0
C      1  0.5586600000000  0.4634720000000  0.5148070000000 1.0
C      1  0.4375680000000  0.5345190000000  0.5206140000000 1.0
C      1  0.4364450000000  0.4803890000000  0.4659280000000 1.0
C      1  0.4902740000000  0.4606210000000  0.4407590000000 1.0
C      1  0.4617530000000  0.4408190000000  0.4892250000000 1.0
C      1  0.5591010000000  0.5137700000000  0.4617790000000 1.0
C      1  0.4412290000000  0.5091640000000  0.5396600000000 1.0
C      1  0.5583160000000  0.4895350000000  0.5372650000000 1.0
C      1  0.5206100000000  0.5353020000000  0.4372720000000 1.0
C      1  0.4889980000000  0.5376360000000  0.5584900000000 1.0
C      1  0.5133830000000  0.4625120000000  0.5582370000000 1.0
C      1  0.5384800000000  0.5593300000000  0.4894210000000 1.0
C      1  0.4622890000000  0.5595940000000  0.5157650000000 1.0
C      1  0.5344340000000  0.4389600000000  0.5199790000000 1.0
C      1  0.5062420000000  0.4754490000000  0.4716190000000 1.0
C      1  0.5237750000000  0.4930770000000  0.4715840000000 1.0
C      1  0.4722840000000  0.4916030000000  0.5231600000000 1.0
C      1  0.4931560000000  0.5249400000000  0.4754070000000 1.0
C      1  0.4907130000000  0.4732460000000  0.5228920000000 1.0
C      1  0.5079610000000  0.5269220000000  0.5258550000000 1.0
C      1  0.4765040000000  0.5069800000000  0.4765850000000 1.0
C      1  0.5260410000000  0.5087770000000  0.5255330000000 1.0
C      1  0.4720980000000  0.4726720000000  0.5064620000000 1.0
C      1  0.5262190000000  0.5270700000000  0.5075780000000 1.0
C      1  0.5230360000000  0.4762630000000  0.4904730000000 1.0
C      1  0.4756890000000  0.5247460000000  0.4931080000000 1.0
C      1  0.5182770000000  0.4810360000000  0.4773650000000 1.0
C      1  0.4778240000000  0.4788640000000  0.5181460000000 1.0
C      1  0.4811790000000  0.5195790000000  0.4810560000000 1.0
C      1  0.5201900000000  0.5210990000000  0.5197690000000 1.0
END
