TITL C-1887012-575-95 -3.22479933827432e-08 1000000 -1239.50547641504 0 0 180 (Cs) n - 1
REM
REM in /nfs/bkarasulu/CARBON/AIRSS/Generating-Clusters/GAP-ML-2020/Higher-Symm/Selected-Sizes/TryA-Only_Ih-Symm/Larger-Clusters
REM
REM
REM
REM
REM
REM ./C.cell (2cf5181f0f1d4d5b12b972d32ad12063)
REM
REM compiler GCC version 9.2.1 20190827 (Red Hat 9.2.1-1)
REM options -cpp -mtune=generic -march=x86-64 -g -O0 -fpre-include=/usr/include/finclude/math-vector-fortran.h
REM seed 415077140 890172379 -415746011 -305918556 -1576705198 372432258 -1736077347 1681737032 674662073 676462890 2004171606 -827793965 2005164033 -1619170215 -165937213 661645066 1156312319 638995690 -458446391 134227456 1742787197 1569864805 -29268060 -441181791 1535648266 -1666461828 -1486725825 -295603894 -1221325666 1577372816 -1196360856 -964939810 -1420494209
REM
CELL 1.54180  100.00000  100.00000  100.00000   90.00000   90.00000   90.00000
LATT -1
SFAC C  
C      1  0.4949550000000  0.5316680000000  0.5502150000000 1.0
C      1  0.5315460000000  0.5494920000000  0.4951970000000 1.0
C      1  0.5500240000000  0.4948420000000  0.5320980000000 1.0
C      1  0.5047220000000  0.5310130000000  0.4501060000000 1.0
C      1  0.5049150000000  0.4685150000000  0.5503900000000 1.0
C      1  0.4941960000000  0.4674770000000  0.4482290000000 1.0
C      1  0.4682890000000  0.5498990000000  0.5048990000000 1.0
C      1  0.4683560000000  0.4504330000000  0.4946170000000 1.0
C      1  0.5332140000000  0.4490640000000  0.5047890000000 1.0
C      1  0.4496100000000  0.4952340000000  0.4684020000000 1.0
C      1  0.4498410000000  0.5048030000000  0.5317100000000 1.0
C      1  0.5496280000000  0.5040820000000  0.4687590000000 1.0
C      1  0.5498790000000  0.5310410000000  0.4953010000000 1.0
C      1  0.4950430000000  0.5499160000000  0.5316760000000 1.0
C      1  0.5315570000000  0.4952860000000  0.5504190000000 1.0
C      1  0.4497620000000  0.5316400000000  0.5049820000000 1.0
C      1  0.5517870000000  0.4675130000000  0.5058690000000 1.0
C      1  0.4496340000000  0.4684800000000  0.4950600000000 1.0
C      1  0.5047990000000  0.5494760000000  0.4684270000000 1.0
C      1  0.4952720000000  0.4490410000000  0.4668150000000 1.0
C      1  0.5053870000000  0.4504550000000  0.5316800000000 1.0
C      1  0.4679470000000  0.4947910000000  0.4499510000000 1.0
C      1  0.5312800000000  0.5040700000000  0.4503970000000 1.0
C      1  0.4682430000000  0.5048150000000  0.5501280000000 1.0
C      1  0.4477890000000  0.4388080000000  0.5138870000000 1.0
C      1  0.4383880000000  0.5142850000000  0.4472910000000 1.0
C      1  0.5104150000000  0.4470460000000  0.4350070000000 1.0
C      1  0.5562250000000  0.4395510000000  0.4941940000000 1.0
C      1  0.5527080000000  0.5609380000000  0.5140890000000 1.0
C      1  0.4472630000000  0.5613860000000  0.4858650000000 1.0
C      1  0.5612550000000  0.5142190000000  0.5530250000000 1.0
C      1  0.5611890000000  0.4855160000000  0.4474800000000 1.0
C      1  0.4385120000000  0.4857490000000  0.5528300000000 1.0
C      1  0.4858620000000  0.4472560000000  0.5610370000000 1.0
C      1  0.4859090000000  0.5522580000000  0.4386500000000 1.0
C      1  0.5140020000000  0.5528820000000  0.5613980000000 1.0
C      1  0.5058930000000  0.4395200000000  0.4438190000000 1.0
C      1  0.4470180000000  0.5141480000000  0.4386900000000 1.0
C      1  0.4389840000000  0.4472260000000  0.5141180000000 1.0
C      1  0.4861060000000  0.4388320000000  0.5522380000000 1.0
C      1  0.5140530000000  0.5614270000000  0.5527110000000 1.0
C      1  0.4859170000000  0.5608970000000  0.4472430000000 1.0
C      1  0.5526470000000  0.5143560000000  0.5616470000000 1.0
C      1  0.4471240000000  0.4857550000000  0.5614490000000 1.0
C      1  0.5525810000000  0.4855110000000  0.4388650000000 1.0
C      1  0.5650360000000  0.4470800000000  0.4896730000000 1.0
C      1  0.4385820000000  0.5528360000000  0.4859130000000 1.0
C      1  0.5613070000000  0.5523050000000  0.5141100000000 1.0
C      1  0.5607030000000  0.4693520000000  0.4942910000000 1.0
C      1  0.4695080000000  0.4933560000000  0.5594870000000 1.0
C      1  0.4934040000000  0.5589020000000  0.4696490000000 1.0
C      1  0.4404480000000  0.4696460000000  0.5066250000000 1.0
C      1  0.4404010000000  0.5304360000000  0.4935350000000 1.0
C      1  0.5592590000000  0.5298520000000  0.5067340000000 1.0
C      1  0.5300450000000  0.4926010000000  0.4411160000000 1.0
C      1  0.5302670000000  0.5068170000000  0.5596680000000 1.0
C      1  0.4693350000000  0.5062990000000  0.4406820000000 1.0
C      1  0.5065330000000  0.5592120000000  0.5303340000000 1.0
C      1  0.5087260000000  0.4428480000000  0.4704360000000 1.0
C      1  0.4937640000000  0.4413860000000  0.5298630000000 1.0
C      1  0.4933420000000  0.4696800000000  0.5595650000000 1.0
C      1  0.5589150000000  0.4926190000000  0.4700100000000 1.0
C      1  0.4696350000000  0.5591900000000  0.4934050000000 1.0
C      1  0.5057800000000  0.4693180000000  0.4393210000000 1.0
C      1  0.4932970000000  0.5298110000000  0.4407170000000 1.0
C      1  0.5063950000000  0.5304770000000  0.5595870000000 1.0
C      1  0.4404900000000  0.4933380000000  0.5304430000000 1.0
C      1  0.5592870000000  0.5063550000000  0.5307110000000 1.0
C      1  0.4403540000000  0.5067600000000  0.4696770000000 1.0
C      1  0.5303090000000  0.5589240000000  0.5065850000000 1.0
C      1  0.4701690000000  0.4413710000000  0.5062480000000 1.0
C      1  0.5296080000000  0.4428600000000  0.4913360000000 1.0
C      1  0.4338400000000  0.4603050000000  0.5146640000000 1.0
C      1  0.4602010000000  0.5143770000000  0.4338070000000 1.0
C      1  0.5210430000000  0.4372580000000  0.4683010000000 1.0
C      1  0.5678990000000  0.4602680000000  0.4866510000000 1.0
C      1  0.5661760000000  0.5391230000000  0.5146090000000 1.0
C      1  0.4336130000000  0.5396890000000  0.4855200000000 1.0
C      1  0.5394690000000  0.5148360000000  0.5665140000000 1.0
C      1  0.5393830000000  0.4847620000000  0.4342130000000 1.0
C      1  0.4603040000000  0.4853140000000  0.5663140000000 1.0
C      1  0.4859060000000  0.4341830000000  0.5389440000000 1.0
C      1  0.4854880000000  0.5658110000000  0.4604060000000 1.0
C      1  0.5145260000000  0.5661590000000  0.5394840000000 1.0
C      1  0.5134320000000  0.4602340000000  0.4321380000000 1.0
C      1  0.4335100000000  0.5147700000000  0.4604650000000 1.0
C      1  0.4610860000000  0.4341670000000  0.5141020000000 1.0
C      1  0.4853020000000  0.4603380000000  0.5661710000000 1.0
C      1  0.5143980000000  0.5397390000000  0.5663750000000 1.0
C      1  0.4854220000000  0.5390730000000  0.4337880000000 1.0
C      1  0.5661500000000  0.5144420000000  0.5398460000000 1.0
C      1  0.4336590000000  0.4852970000000  0.5396460000000 1.0
C      1  0.5658310000000  0.4847780000000  0.4606820000000 1.0
C      1  0.5317570000000  0.4372640000000  0.4790240000000 1.0
C      1  0.4604880000000  0.5661260000000  0.4854000000000 1.0
C      1  0.5395410000000  0.5658440000000  0.5145040000000 1.0
C      1  0.4841030000000  0.5580690000000  0.4938240000000 1.0
C      1  0.5580590000000  0.4931480000000  0.4845150000000 1.0
C      1  0.4937200000000  0.4841770000000  0.5586740000000 1.0
C      1  0.5158280000000  0.5579670000000  0.5061790000000 1.0
C      1  0.5156840000000  0.4458440000000  0.4939970000000 1.0
C      1  0.4846350000000  0.4429070000000  0.5056240000000 1.0
C      1  0.4414050000000  0.4938130000000  0.5159650000000 1.0
C      1  0.4413200000000  0.5063160000000  0.4841660000000 1.0
C      1  0.5582760000000  0.5057850000000  0.5162490000000 1.0
C      1  0.5056700000000  0.4836380000000  0.4415420000000 1.0
C      1  0.5060140000000  0.5159940000000  0.5586600000000 1.0
C      1  0.4935950000000  0.5153280000000  0.4417560000000 1.0
C      1  0.4937990000000  0.5579540000000  0.4841310000000 1.0
C      1  0.4839870000000  0.4938400000000  0.5585840000000 1.0
C      1  0.5584730000000  0.4836710000000  0.4943900000000 1.0
C      1  0.5061270000000  0.5580820000000  0.5158670000000 1.0
C      1  0.4943990000000  0.4429130000000  0.5153970000000 1.0
C      1  0.5060510000000  0.4458380000000  0.4843560000000 1.0
C      1  0.5155390000000  0.4931220000000  0.4419590000000 1.0
C      1  0.4837970000000  0.5057390000000  0.4417060000000 1.0
C      1  0.5157800000000  0.5063620000000  0.5586900000000 1.0
C      1  0.4413300000000  0.4841430000000  0.5062380000000 1.0
C      1  0.5582290000000  0.5153680000000  0.5064450000000 1.0
C      1  0.4413360000000  0.5159540000000  0.4939250000000 1.0
C      1  0.4828530000000  0.4490070000000  0.4918920000000 1.0
C      1  0.4477190000000  0.4928930000000  0.4831110000000 1.0
C      1  0.4921310000000  0.4824370000000  0.4477360000000 1.0
C      1  0.5182220000000  0.4494740000000  0.5078810000000 1.0
C      1  0.5168470000000  0.5513840000000  0.4928240000000 1.0
C      1  0.4830080000000  0.5516550000000  0.5072570000000 1.0
C      1  0.5519590000000  0.4922890000000  0.5174500000000 1.0
C      1  0.5515870000000  0.5065460000000  0.4834300000000 1.0
C      1  0.4478930000000  0.5072180000000  0.5170110000000 1.0
C      1  0.5071800000000  0.4832220000000  0.5523170000000 1.0
C      1  0.5069750000000  0.5162840000000  0.4483090000000 1.0
C      1  0.4926140000000  0.5169620000000  0.5521300000000 1.0
C      1  0.4921670000000  0.4494580000000  0.4818040000000 1.0
C      1  0.4825990000000  0.4922450000000  0.4480300000000 1.0
C      1  0.4477000000000  0.4831840000000  0.4927840000000 1.0
C      1  0.5081260000000  0.4490220000000  0.5171860000000 1.0
C      1  0.4926970000000  0.5516610000000  0.5169540000000 1.0
C      1  0.5071590000000  0.5513780000000  0.4831270000000 1.0
C      1  0.5168480000000  0.4929370000000  0.5523000000000 1.0
C      1  0.4829390000000  0.5072400000000  0.5520880000000 1.0
C      1  0.5166100000000  0.5065240000000  0.4484240000000 1.0
C      1  0.5522690000000  0.4824740000000  0.5079250000000 1.0
C      1  0.4478540000000  0.5169340000000  0.5073300000000 1.0
C      1  0.5516870000000  0.5163120000000  0.4930590000000 1.0
C      1  0.5735360000000  0.4653540000000  0.4748360000000 1.0
C      1  0.4658030000000  0.4744460000000  0.5734710000000 1.0
C      1  0.4747490000000  0.5731720000000  0.4658810000000 1.0
C      1  0.4265820000000  0.4656730000000  0.5255190000000 1.0
C      1  0.4263440000000  0.5342220000000  0.4747110000000 1.0
C      1  0.5734890000000  0.5337030000000  0.5254100000000 1.0
C      1  0.5340600000000  0.4738130000000  0.4270840000000 1.0
C      1  0.5339440000000  0.5256470000000  0.5737280000000 1.0
C      1  0.4658460000000  0.5250520000000  0.4264840000000 1.0
C      1  0.5253550000000  0.5733170000000  0.5339120000000 1.0
C      1  0.5304890000000  0.4296490000000  0.4599810000000 1.0
C      1  0.4754010000000  0.4266660000000  0.5333020000000 1.0
C      1  0.4744380000000  0.4657030000000  0.5734170000000 1.0
C      1  0.5729620000000  0.4738370000000  0.4660190000000 1.0
C      1  0.4660640000000  0.5732820000000  0.4745720000000 1.0
C      1  0.5252480000000  0.4653240000000  0.4265080000000 1.0
C      1  0.4746320000000  0.5336420000000  0.4264690000000 1.0
C      1  0.5252040000000  0.5342830000000  0.5736570000000 1.0
C      1  0.4265140000000  0.4744210000000  0.5341480000000 1.0
C      1  0.5734710000000  0.5251190000000  0.5342000000000 1.0
C      1  0.4262860000000  0.5255810000000  0.4659770000000 1.0
C      1  0.5340530000000  0.5732080000000  0.5252350000000 1.0
C      1  0.4667230000000  0.4266600000000  0.5246160000000 1.0
C      1  0.5400900000000  0.4296550000000  0.4695890000000 1.0
C      1  0.5408790000000  0.5071210000000  0.4591520000000 1.0
C      1  0.4586470000000  0.5077410000000  0.5413120000000 1.0
C      1  0.5433220000000  0.4573460000000  0.5075820000000 1.0
C      1  0.4586130000000  0.5412030000000  0.5078870000000 1.0
C      1  0.5080710000000  0.4590090000000  0.5415760000000 1.0
C      1  0.5077150000000  0.5406450000000  0.4588520000000 1.0
C      1  0.4583080000000  0.4920740000000  0.4587790000000 1.0
C      1  0.4924820000000  0.4573140000000  0.4566990000000 1.0
C      1  0.4584570000000  0.4589780000000  0.4919190000000 1.0
C      1  0.5411900000000  0.4921260000000  0.5417310000000 1.0
C      1  0.4920520000000  0.5412240000000  0.5413560000000 1.0
C      1  0.5411300000000  0.5406660000000  0.4922940000000 1.0
END
