TITL C-1892071-372-84 4.05154375253261e-07 1000000 -4212.57650193902 0 0 600 (Td) n - 1
REM
REM in /nfs/bkarasulu/CARBON/AIRSS/Generating-Clusters/GAP-ML-2020/Higher-Symm/Selected-Sizes/TryA-Only_Ih-Symm/Larger-Clusters
REM
REM
REM
REM
REM
REM ./C.cell (2cf5181f0f1d4d5b12b972d32ad12063)
REM
REM compiler GCC version 9.2.1 20190827 (Red Hat 9.2.1-1)
REM options -cpp -mtune=generic -march=x86-64 -g -O0 -fpre-include=/usr/include/finclude/math-vector-fortran.h
REM seed -583348139 -538855357 946450724 -1810251440 -617787195 -698087035 -1344077792 1844068076 -110232705 -510592111 1363909764 1618817704 111189591 84124896 -652654631 -1946137000 -356304753 -320853954 -999095657 2030113964 1956863973 -559552319 1187233101 891834548 1679549681 767802157 2048683183 -1172004645 498195769 -5515210 145131950 1390807127 1794844412
REM
CELL 1.54180  100.00000  100.00000  100.00000   90.00000   90.00000   90.00000
LATT -1
SFAC C  
C      1  0.4774940000000  0.4877130000000  0.5338290000000 1.0
C      1  0.4877130000000  0.5338290000000  0.4774940000000 1.0
C      1  0.5338290000000  0.4774940000000  0.4877130000000 1.0
C      1  0.4774940000000  0.5122870000000  0.4661710000000 1.0
C      1  0.5225060000000  0.4877130000000  0.4661710000000 1.0
C      1  0.5225060000000  0.5122870000000  0.5338290000000 1.0
C      1  0.4877130000000  0.4661710000000  0.5225060000000 1.0
C      1  0.5122870000000  0.5338290000000  0.5225060000000 1.0
C      1  0.5122870000000  0.4661710000000  0.4774940000000 1.0
C      1  0.5338290000000  0.5225060000000  0.5122870000000 1.0
C      1  0.4661710000000  0.4774940000000  0.5122870000000 1.0
C      1  0.4661710000000  0.5225060000000  0.4877130000000 1.0
C      1  0.4774940000000  0.5338290000000  0.4877130000000 1.0
C      1  0.4877130000000  0.4774940000000  0.5338290000000 1.0
C      1  0.5338290000000  0.4877130000000  0.4774940000000 1.0
C      1  0.4774940000000  0.4661710000000  0.5122870000000 1.0
C      1  0.5225060000000  0.4661710000000  0.4877130000000 1.0
C      1  0.5225060000000  0.5338290000000  0.5122870000000 1.0
C      1  0.4877130000000  0.5225060000000  0.4661710000000 1.0
C      1  0.5122870000000  0.5225060000000  0.5338290000000 1.0
C      1  0.5122870000000  0.4774940000000  0.4661710000000 1.0
C      1  0.5338290000000  0.5122870000000  0.5225060000000 1.0
C      1  0.4661710000000  0.5122870000000  0.4774940000000 1.0
C      1  0.4661710000000  0.4877130000000  0.5225060000000 1.0
C      1  0.4203340000000  0.5251260000000  0.4857590000000 1.0
C      1  0.5251260000000  0.4857590000000  0.4203340000000 1.0
C      1  0.4857590000000  0.4203340000000  0.5251260000000 1.0
C      1  0.4203340000000  0.4748740000000  0.5142410000000 1.0
C      1  0.5796660000000  0.5251260000000  0.5142410000000 1.0
C      1  0.5796660000000  0.4748740000000  0.4857590000000 1.0
C      1  0.5251260000000  0.5142410000000  0.5796660000000 1.0
C      1  0.4748740000000  0.4857590000000  0.5796660000000 1.0
C      1  0.4748740000000  0.5142410000000  0.4203340000000 1.0
C      1  0.4857590000000  0.5796660000000  0.4748740000000 1.0
C      1  0.5142410000000  0.4203340000000  0.4748740000000 1.0
C      1  0.5142410000000  0.5796660000000  0.5251260000000 1.0
C      1  0.4203340000000  0.4857590000000  0.5251260000000 1.0
C      1  0.5251260000000  0.4203340000000  0.4857590000000 1.0
C      1  0.4857590000000  0.5251260000000  0.4203340000000 1.0
C      1  0.4203340000000  0.5142410000000  0.4748740000000 1.0
C      1  0.5796660000000  0.5142410000000  0.5251260000000 1.0
C      1  0.5796660000000  0.4857590000000  0.4748740000000 1.0
C      1  0.5251260000000  0.5796660000000  0.5142410000000 1.0
C      1  0.4748740000000  0.5796660000000  0.4857590000000 1.0
C      1  0.4748740000000  0.4203340000000  0.5142410000000 1.0
C      1  0.4857590000000  0.4748740000000  0.5796660000000 1.0
C      1  0.5142410000000  0.4748740000000  0.4203340000000 1.0
C      1  0.5142410000000  0.5251260000000  0.5796660000000 1.0
C      1  0.5003240000000  0.4891360000000  0.4288520000000 1.0
C      1  0.4891360000000  0.4288520000000  0.5003240000000 1.0
C      1  0.4288520000000  0.5003240000000  0.4891360000000 1.0
C      1  0.5003240000000  0.5108640000000  0.5711480000000 1.0
C      1  0.4996760000000  0.4891360000000  0.5711480000000 1.0
C      1  0.4996760000000  0.5108640000000  0.4288520000000 1.0
C      1  0.4891360000000  0.5711480000000  0.4996760000000 1.0
C      1  0.5108640000000  0.4288520000000  0.4996760000000 1.0
C      1  0.5108640000000  0.5711480000000  0.5003240000000 1.0
C      1  0.4288520000000  0.4996760000000  0.5108640000000 1.0
C      1  0.5711480000000  0.5003240000000  0.5108640000000 1.0
C      1  0.5711480000000  0.4996760000000  0.4891360000000 1.0
C      1  0.5003240000000  0.4288520000000  0.4891360000000 1.0
C      1  0.4891360000000  0.5003240000000  0.4288520000000 1.0
C      1  0.4288520000000  0.4891360000000  0.5003240000000 1.0
C      1  0.5003240000000  0.5711480000000  0.5108640000000 1.0
C      1  0.4996760000000  0.5711480000000  0.4891360000000 1.0
C      1  0.4996760000000  0.4288520000000  0.5108640000000 1.0
C      1  0.4891360000000  0.4996760000000  0.5711480000000 1.0
C      1  0.5108640000000  0.4996760000000  0.4288520000000 1.0
C      1  0.5108640000000  0.5003240000000  0.5711480000000 1.0
C      1  0.4288520000000  0.5108640000000  0.4996760000000 1.0
C      1  0.5711480000000  0.5108640000000  0.5003240000000 1.0
C      1  0.5711480000000  0.4891360000000  0.4996760000000 1.0
C      1  0.4651590000000  0.5134050000000  0.5235710000000 1.0
C      1  0.5134050000000  0.5235710000000  0.4651590000000 1.0
C      1  0.5235710000000  0.4651590000000  0.5134050000000 1.0
C      1  0.4651590000000  0.4865950000000  0.4764290000000 1.0
C      1  0.5348410000000  0.5134050000000  0.4764290000000 1.0
C      1  0.5348410000000  0.4865950000000  0.5235710000000 1.0
C      1  0.5134050000000  0.4764290000000  0.5348410000000 1.0
C      1  0.4865950000000  0.5235710000000  0.5348410000000 1.0
C      1  0.4865950000000  0.4764290000000  0.4651590000000 1.0
C      1  0.5235710000000  0.5348410000000  0.4865950000000 1.0
C      1  0.4764290000000  0.4651590000000  0.4865950000000 1.0
C      1  0.4764290000000  0.5348410000000  0.5134050000000 1.0
C      1  0.4651590000000  0.5235710000000  0.5134050000000 1.0
C      1  0.5134050000000  0.4651590000000  0.5235710000000 1.0
C      1  0.5235710000000  0.5134050000000  0.4651590000000 1.0
C      1  0.4651590000000  0.4764290000000  0.4865950000000 1.0
C      1  0.5348410000000  0.4764290000000  0.5134050000000 1.0
C      1  0.5348410000000  0.5235710000000  0.4865950000000 1.0
C      1  0.5134050000000  0.5348410000000  0.4764290000000 1.0
C      1  0.4865950000000  0.5348410000000  0.5235710000000 1.0
C      1  0.4865950000000  0.4651590000000  0.4764290000000 1.0
C      1  0.5235710000000  0.4865950000000  0.5348410000000 1.0
C      1  0.4764290000000  0.4865950000000  0.4651590000000 1.0
C      1  0.4764290000000  0.5134050000000  0.5348410000000 1.0
C      1  0.5841060000000  0.5190240000000  0.5005120000000 1.0
C      1  0.5190240000000  0.5005120000000  0.5841060000000 1.0
C      1  0.5005120000000  0.5841060000000  0.5190240000000 1.0
C      1  0.5841060000000  0.4809760000000  0.4994880000000 1.0
C      1  0.4158940000000  0.5190240000000  0.4994880000000 1.0
C      1  0.4158940000000  0.4809760000000  0.5005120000000 1.0
C      1  0.5190240000000  0.4994880000000  0.4158940000000 1.0
C      1  0.4809760000000  0.5005120000000  0.4158940000000 1.0
C      1  0.4809760000000  0.4994880000000  0.5841060000000 1.0
C      1  0.5005120000000  0.4158940000000  0.4809760000000 1.0
C      1  0.4994880000000  0.5841060000000  0.4809760000000 1.0
C      1  0.4994880000000  0.4158940000000  0.5190240000000 1.0
C      1  0.5841060000000  0.5005120000000  0.5190240000000 1.0
C      1  0.5190240000000  0.5841060000000  0.5005120000000 1.0
C      1  0.5005120000000  0.5190240000000  0.5841060000000 1.0
C      1  0.5841060000000  0.4994880000000  0.4809760000000 1.0
C      1  0.4158940000000  0.4994880000000  0.5190240000000 1.0
C      1  0.4158940000000  0.5005120000000  0.4809760000000 1.0
C      1  0.5190240000000  0.4158940000000  0.4994880000000 1.0
C      1  0.4809760000000  0.4158940000000  0.5005120000000 1.0
C      1  0.4809760000000  0.5841060000000  0.4994880000000 1.0
C      1  0.5005120000000  0.4809760000000  0.4158940000000 1.0
C      1  0.4994880000000  0.4809760000000  0.5841060000000 1.0
C      1  0.4994880000000  0.5190240000000  0.4158940000000 1.0
C      1  0.4522620000000  0.4695020000000  0.4872040000000 1.0
C      1  0.4695020000000  0.4872040000000  0.4522620000000 1.0
C      1  0.4872040000000  0.4522620000000  0.4695020000000 1.0
C      1  0.4522620000000  0.5304980000000  0.5127960000000 1.0
C      1  0.5477380000000  0.4695020000000  0.5127960000000 1.0
C      1  0.5477380000000  0.5304980000000  0.4872040000000 1.0
C      1  0.4695020000000  0.5127960000000  0.5477380000000 1.0
C      1  0.5304980000000  0.4872040000000  0.5477380000000 1.0
C      1  0.5304980000000  0.5127960000000  0.4522620000000 1.0
C      1  0.4872040000000  0.5477380000000  0.5304980000000 1.0
C      1  0.5127960000000  0.4522620000000  0.5304980000000 1.0
C      1  0.5127960000000  0.5477380000000  0.4695020000000 1.0
C      1  0.4522620000000  0.4872040000000  0.4695020000000 1.0
C      1  0.4695020000000  0.4522620000000  0.4872040000000 1.0
C      1  0.4872040000000  0.4695020000000  0.4522620000000 1.0
C      1  0.4522620000000  0.5127960000000  0.5304980000000 1.0
C      1  0.5477380000000  0.5127960000000  0.4695020000000 1.0
C      1  0.5477380000000  0.4872040000000  0.5304980000000 1.0
C      1  0.4695020000000  0.5477380000000  0.5127960000000 1.0
C      1  0.5304980000000  0.5477380000000  0.4872040000000 1.0
C      1  0.5304980000000  0.4522620000000  0.5127960000000 1.0
C      1  0.4872040000000  0.5304980000000  0.5477380000000 1.0
C      1  0.5127960000000  0.5304980000000  0.4522620000000 1.0
C      1  0.5127960000000  0.4695020000000  0.5477380000000 1.0
C      1  0.5511270000000  0.5295170000000  0.4289570000000 1.0
C      1  0.5295170000000  0.4289570000000  0.5511270000000 1.0
C      1  0.4289570000000  0.5511270000000  0.5295170000000 1.0
C      1  0.5511270000000  0.4704830000000  0.5710430000000 1.0
C      1  0.4488730000000  0.5295170000000  0.5710430000000 1.0
C      1  0.4488730000000  0.4704830000000  0.4289570000000 1.0
C      1  0.5295170000000  0.5710430000000  0.4488730000000 1.0
C      1  0.4704830000000  0.4289570000000  0.4488730000000 1.0
C      1  0.4704830000000  0.5710430000000  0.5511270000000 1.0
C      1  0.4289570000000  0.4488730000000  0.4704830000000 1.0
C      1  0.5710430000000  0.5511270000000  0.4704830000000 1.0
C      1  0.5710430000000  0.4488730000000  0.5295170000000 1.0
C      1  0.5511270000000  0.4289570000000  0.5295170000000 1.0
C      1  0.5295170000000  0.5511270000000  0.4289570000000 1.0
C      1  0.4289570000000  0.5295170000000  0.5511270000000 1.0
C      1  0.5511270000000  0.5710430000000  0.4704830000000 1.0
C      1  0.4488730000000  0.5710430000000  0.5295170000000 1.0
C      1  0.4488730000000  0.4289570000000  0.4704830000000 1.0
C      1  0.5295170000000  0.4488730000000  0.5710430000000 1.0
C      1  0.4704830000000  0.4488730000000  0.4289570000000 1.0
C      1  0.4704830000000  0.5511270000000  0.5710430000000 1.0
C      1  0.4289570000000  0.4704830000000  0.4488730000000 1.0
C      1  0.5710430000000  0.4704830000000  0.5511270000000 1.0
C      1  0.5710430000000  0.5295170000000  0.4488730000000 1.0
C      1  0.5002640000000  0.4625500000000  0.5645270000000 1.0
C      1  0.4625500000000  0.5645270000000  0.5002640000000 1.0
C      1  0.5645270000000  0.5002640000000  0.4625500000000 1.0
C      1  0.5002640000000  0.5374500000000  0.4354730000000 1.0
C      1  0.4997360000000  0.4625500000000  0.4354730000000 1.0
C      1  0.4997360000000  0.5374500000000  0.5645270000000 1.0
C      1  0.4625500000000  0.4354730000000  0.4997360000000 1.0
C      1  0.5374500000000  0.5645270000000  0.4997360000000 1.0
C      1  0.5374500000000  0.4354730000000  0.5002640000000 1.0
C      1  0.5645270000000  0.4997360000000  0.5374500000000 1.0
C      1  0.4354730000000  0.5002640000000  0.5374500000000 1.0
C      1  0.4354730000000  0.4997360000000  0.4625500000000 1.0
C      1  0.5002640000000  0.5645270000000  0.4625500000000 1.0
C      1  0.4625500000000  0.5002640000000  0.5645270000000 1.0
C      1  0.5645270000000  0.4625500000000  0.5002640000000 1.0
C      1  0.5002640000000  0.4354730000000  0.5374500000000 1.0
C      1  0.4997360000000  0.4354730000000  0.4625500000000 1.0
C      1  0.4997360000000  0.5645270000000  0.5374500000000 1.0
C      1  0.4625500000000  0.4997360000000  0.4354730000000 1.0
C      1  0.5374500000000  0.4997360000000  0.5645270000000 1.0
C      1  0.5374500000000  0.5002640000000  0.4354730000000 1.0
C      1  0.5645270000000  0.5374500000000  0.4997360000000 1.0
C      1  0.4354730000000  0.5374500000000  0.5002640000000 1.0
C      1  0.4354730000000  0.4625500000000  0.4997360000000 1.0
C      1  0.5239900000000  0.4583480000000  0.4359060000000 1.0
C      1  0.4583480000000  0.4359060000000  0.5239900000000 1.0
C      1  0.4359060000000  0.5239900000000  0.4583480000000 1.0
C      1  0.5239900000000  0.5416520000000  0.5640940000000 1.0
C      1  0.4760100000000  0.4583480000000  0.5640940000000 1.0
C      1  0.4760100000000  0.5416520000000  0.4359060000000 1.0
C      1  0.4583480000000  0.5640940000000  0.4760100000000 1.0
C      1  0.5416520000000  0.4359060000000  0.4760100000000 1.0
C      1  0.5416520000000  0.5640940000000  0.5239900000000 1.0
C      1  0.4359060000000  0.4760100000000  0.5416520000000 1.0
C      1  0.5640940000000  0.5239900000000  0.5416520000000 1.0
C      1  0.5640940000000  0.4760100000000  0.4583480000000 1.0
C      1  0.5239900000000  0.4359060000000  0.4583480000000 1.0
C      1  0.4583480000000  0.5239900000000  0.4359060000000 1.0
C      1  0.4359060000000  0.4583480000000  0.5239900000000 1.0
C      1  0.5239900000000  0.5640940000000  0.5416520000000 1.0
C      1  0.4760100000000  0.5640940000000  0.4583480000000 1.0
C      1  0.4760100000000  0.4359060000000  0.5416520000000 1.0
C      1  0.4583480000000  0.4760100000000  0.5640940000000 1.0
C      1  0.5416520000000  0.4760100000000  0.4359060000000 1.0
C      1  0.5416520000000  0.5239900000000  0.5640940000000 1.0
C      1  0.4359060000000  0.5416520000000  0.4760100000000 1.0
C      1  0.5640940000000  0.5416520000000  0.5239900000000 1.0
C      1  0.5640940000000  0.4583480000000  0.4760100000000 1.0
C      1  0.4541570000000  0.5755800000000  0.4959300000000 1.0
C      1  0.5755800000000  0.4959300000000  0.4541570000000 1.0
C      1  0.4959300000000  0.4541570000000  0.5755800000000 1.0
C      1  0.4541570000000  0.4244200000000  0.5040700000000 1.0
C      1  0.5458430000000  0.5755800000000  0.5040700000000 1.0
C      1  0.5458430000000  0.4244200000000  0.4959300000000 1.0
C      1  0.5755800000000  0.5040700000000  0.5458430000000 1.0
C      1  0.4244200000000  0.4959300000000  0.5458430000000 1.0
C      1  0.4244200000000  0.5040700000000  0.4541570000000 1.0
C      1  0.4959300000000  0.5458430000000  0.4244200000000 1.0
C      1  0.5040700000000  0.4541570000000  0.4244200000000 1.0
C      1  0.5040700000000  0.5458430000000  0.5755800000000 1.0
C      1  0.4541570000000  0.4959300000000  0.5755800000000 1.0
C      1  0.5755800000000  0.4541570000000  0.4959300000000 1.0
C      1  0.4959300000000  0.5755800000000  0.4541570000000 1.0
C      1  0.4541570000000  0.5040700000000  0.4244200000000 1.0
C      1  0.5458430000000  0.5040700000000  0.5755800000000 1.0
C      1  0.5458430000000  0.4959300000000  0.4244200000000 1.0
C      1  0.5755800000000  0.5458430000000  0.5040700000000 1.0
C      1  0.4244200000000  0.5458430000000  0.4959300000000 1.0
C      1  0.4244200000000  0.4541570000000  0.5040700000000 1.0
C      1  0.4959300000000  0.4244200000000  0.5458430000000 1.0
C      1  0.5040700000000  0.4244200000000  0.4541570000000 1.0
C      1  0.5040700000000  0.5755800000000  0.5458430000000 1.0
C      1  0.4608430000000  0.5501110000000  0.5013900000000 1.0
C      1  0.5501110000000  0.5013900000000  0.4608430000000 1.0
C      1  0.5013900000000  0.4608430000000  0.5501110000000 1.0
C      1  0.4608430000000  0.4498890000000  0.4986100000000 1.0
C      1  0.5391570000000  0.5501110000000  0.4986100000000 1.0
C      1  0.5391570000000  0.4498890000000  0.5013900000000 1.0
C      1  0.5501110000000  0.4986100000000  0.5391570000000 1.0
C      1  0.4498890000000  0.5013900000000  0.5391570000000 1.0
C      1  0.4498890000000  0.4986100000000  0.4608430000000 1.0
C      1  0.5013900000000  0.5391570000000  0.4498890000000 1.0
C      1  0.4986100000000  0.4608430000000  0.4498890000000 1.0
C      1  0.4986100000000  0.5391570000000  0.5501110000000 1.0
C      1  0.4608430000000  0.5013900000000  0.5501110000000 1.0
C      1  0.5501110000000  0.4608430000000  0.5013900000000 1.0
C      1  0.5013900000000  0.5501110000000  0.4608430000000 1.0
C      1  0.4608430000000  0.4986100000000  0.4498890000000 1.0
C      1  0.5391570000000  0.4986100000000  0.5501110000000 1.0
C      1  0.5391570000000  0.5013900000000  0.4498890000000 1.0
C      1  0.5501110000000  0.5391570000000  0.4986100000000 1.0
C      1  0.4498890000000  0.5391570000000  0.5013900000000 1.0
C      1  0.4498890000000  0.4608430000000  0.4986100000000 1.0
C      1  0.5013900000000  0.4498890000000  0.5391570000000 1.0
C      1  0.4986100000000  0.4498890000000  0.4608430000000 1.0
C      1  0.4986100000000  0.5501110000000  0.5391570000000 1.0
C      1  0.5183040000000  0.4716530000000  0.5007880000000 1.0
C      1  0.4716530000000  0.5007880000000  0.5183040000000 1.0
C      1  0.5007880000000  0.5183040000000  0.4716530000000 1.0
C      1  0.5183040000000  0.5283470000000  0.4992120000000 1.0
C      1  0.4816960000000  0.4716530000000  0.4992120000000 1.0
C      1  0.4816960000000  0.5283470000000  0.5007880000000 1.0
C      1  0.4716530000000  0.4992120000000  0.4816960000000 1.0
C      1  0.5283470000000  0.5007880000000  0.4816960000000 1.0
C      1  0.5283470000000  0.4992120000000  0.5183040000000 1.0
C      1  0.5007880000000  0.4816960000000  0.5283470000000 1.0
C      1  0.4992120000000  0.5183040000000  0.5283470000000 1.0
C      1  0.4992120000000  0.4816960000000  0.4716530000000 1.0
C      1  0.5183040000000  0.5007880000000  0.4716530000000 1.0
C      1  0.4716530000000  0.5183040000000  0.5007880000000 1.0
C      1  0.5007880000000  0.4716530000000  0.5183040000000 1.0
C      1  0.5183040000000  0.4992120000000  0.5283470000000 1.0
C      1  0.4816960000000  0.4992120000000  0.4716530000000 1.0
C      1  0.4816960000000  0.5007880000000  0.5283470000000 1.0
C      1  0.4716530000000  0.4816960000000  0.4992120000000 1.0
C      1  0.5283470000000  0.4816960000000  0.5007880000000 1.0
C      1  0.5283470000000  0.5183040000000  0.4992120000000 1.0
C      1  0.5007880000000  0.5283470000000  0.4816960000000 1.0
C      1  0.4992120000000  0.5283470000000  0.5183040000000 1.0
C      1  0.4992120000000  0.4716530000000  0.4816960000000 1.0
C      1  0.5803900000000  0.5295330000000  0.4603730000000 1.0
C      1  0.5295330000000  0.4603730000000  0.5803900000000 1.0
C      1  0.4603730000000  0.5803900000000  0.5295330000000 1.0
C      1  0.5803900000000  0.4704670000000  0.5396270000000 1.0
C      1  0.4196100000000  0.5295330000000  0.5396270000000 1.0
C      1  0.4196100000000  0.4704670000000  0.4603730000000 1.0
C      1  0.5295330000000  0.5396270000000  0.4196100000000 1.0
C      1  0.4704670000000  0.4603730000000  0.4196100000000 1.0
C      1  0.4704670000000  0.5396270000000  0.5803900000000 1.0
C      1  0.4603730000000  0.4196100000000  0.4704670000000 1.0
C      1  0.5396270000000  0.5803900000000  0.4704670000000 1.0
C      1  0.5396270000000  0.4196100000000  0.5295330000000 1.0
C      1  0.5803900000000  0.4603730000000  0.5295330000000 1.0
C      1  0.5295330000000  0.5803900000000  0.4603730000000 1.0
C      1  0.4603730000000  0.5295330000000  0.5803900000000 1.0
C      1  0.5803900000000  0.5396270000000  0.4704670000000 1.0
C      1  0.4196100000000  0.5396270000000  0.5295330000000 1.0
C      1  0.4196100000000  0.4603730000000  0.4704670000000 1.0
C      1  0.5295330000000  0.4196100000000  0.5396270000000 1.0
C      1  0.4704670000000  0.4196100000000  0.4603730000000 1.0
C      1  0.4704670000000  0.5803900000000  0.5396270000000 1.0
C      1  0.4603730000000  0.4704670000000  0.4196100000000 1.0
C      1  0.5396270000000  0.4704670000000  0.5803900000000 1.0
C      1  0.5396270000000  0.5295330000000  0.4196100000000 1.0
C      1  0.5370370000000  0.5859170000000  0.4832550000000 1.0
C      1  0.5859170000000  0.4832550000000  0.5370370000000 1.0
C      1  0.4832550000000  0.5370370000000  0.5859170000000 1.0
C      1  0.5370370000000  0.4140830000000  0.5167450000000 1.0
C      1  0.4629630000000  0.5859170000000  0.5167450000000 1.0
C      1  0.4629630000000  0.4140830000000  0.4832550000000 1.0
C      1  0.5859170000000  0.5167450000000  0.4629630000000 1.0
C      1  0.4140830000000  0.4832550000000  0.4629630000000 1.0
C      1  0.4140830000000  0.5167450000000  0.5370370000000 1.0
C      1  0.4832550000000  0.4629630000000  0.4140830000000 1.0
C      1  0.5167450000000  0.5370370000000  0.4140830000000 1.0
C      1  0.5167450000000  0.4629630000000  0.5859170000000 1.0
C      1  0.5370370000000  0.4832550000000  0.5859170000000 1.0
C      1  0.5859170000000  0.5370370000000  0.4832550000000 1.0
C      1  0.4832550000000  0.5859170000000  0.5370370000000 1.0
C      1  0.5370370000000  0.5167450000000  0.4140830000000 1.0
C      1  0.4629630000000  0.5167450000000  0.5859170000000 1.0
C      1  0.4629630000000  0.4832550000000  0.4140830000000 1.0
C      1  0.5859170000000  0.4629630000000  0.5167450000000 1.0
C      1  0.4140830000000  0.4629630000000  0.4832550000000 1.0
C      1  0.4140830000000  0.5370370000000  0.5167450000000 1.0
C      1  0.4832550000000  0.4140830000000  0.4629630000000 1.0
C      1  0.5167450000000  0.4140830000000  0.5370370000000 1.0
C      1  0.5167450000000  0.5859170000000  0.4629630000000 1.0
C      1  0.5190300000000  0.5296340000000  0.5566190000000 1.0
C      1  0.5296340000000  0.5566190000000  0.5190300000000 1.0
C      1  0.5566190000000  0.5190300000000  0.5296340000000 1.0
C      1  0.5190300000000  0.4703660000000  0.4433810000000 1.0
C      1  0.4809700000000  0.5296340000000  0.4433810000000 1.0
C      1  0.4809700000000  0.4703660000000  0.5566190000000 1.0
C      1  0.5296340000000  0.4433810000000  0.4809700000000 1.0
C      1  0.4703660000000  0.5566190000000  0.4809700000000 1.0
C      1  0.4703660000000  0.4433810000000  0.5190300000000 1.0
C      1  0.5566190000000  0.4809700000000  0.4703660000000 1.0
C      1  0.4433810000000  0.5190300000000  0.4703660000000 1.0
C      1  0.4433810000000  0.4809700000000  0.5296340000000 1.0
C      1  0.5190300000000  0.5566190000000  0.5296340000000 1.0
C      1  0.5296340000000  0.5190300000000  0.5566190000000 1.0
C      1  0.5566190000000  0.5296340000000  0.5190300000000 1.0
C      1  0.5190300000000  0.4433810000000  0.4703660000000 1.0
C      1  0.4809700000000  0.4433810000000  0.5296340000000 1.0
C      1  0.4809700000000  0.5566190000000  0.4703660000000 1.0
C      1  0.5296340000000  0.4809700000000  0.4433810000000 1.0
C      1  0.4703660000000  0.4809700000000  0.5566190000000 1.0
C      1  0.4703660000000  0.5190300000000  0.4433810000000 1.0
C      1  0.5566190000000  0.4703660000000  0.4809700000000 1.0
C      1  0.4433810000000  0.4703660000000  0.5190300000000 1.0
C      1  0.4433810000000  0.5296340000000  0.4809700000000 1.0
C      1  0.4362720000000  0.4773000000000  0.4259130000000 1.0
C      1  0.4773000000000  0.4259130000000  0.4362720000000 1.0
C      1  0.4259130000000  0.4362720000000  0.4773000000000 1.0
C      1  0.4362720000000  0.5227000000000  0.5740870000000 1.0
C      1  0.5637280000000  0.4773000000000  0.5740870000000 1.0
C      1  0.5637280000000  0.5227000000000  0.4259130000000 1.0
C      1  0.4773000000000  0.5740870000000  0.5637280000000 1.0
C      1  0.5227000000000  0.4259130000000  0.5637280000000 1.0
C      1  0.5227000000000  0.5740870000000  0.4362720000000 1.0
C      1  0.4259130000000  0.5637280000000  0.5227000000000 1.0
C      1  0.5740870000000  0.4362720000000  0.5227000000000 1.0
C      1  0.5740870000000  0.5637280000000  0.4773000000000 1.0
C      1  0.4362720000000  0.4259130000000  0.4773000000000 1.0
C      1  0.4773000000000  0.4362720000000  0.4259130000000 1.0
C      1  0.4259130000000  0.4773000000000  0.4362720000000 1.0
C      1  0.4362720000000  0.5740870000000  0.5227000000000 1.0
C      1  0.5637280000000  0.5740870000000  0.4773000000000 1.0
C      1  0.5637280000000  0.4259130000000  0.5227000000000 1.0
C      1  0.4773000000000  0.5637280000000  0.5740870000000 1.0
C      1  0.5227000000000  0.5637280000000  0.4259130000000 1.0
C      1  0.5227000000000  0.4362720000000  0.5740870000000 1.0
C      1  0.4259130000000  0.5227000000000  0.5637280000000 1.0
C      1  0.5740870000000  0.5227000000000  0.4362720000000 1.0
C      1  0.5740870000000  0.4773000000000  0.5637280000000 1.0
C      1  0.4123630000000  0.4872770000000  0.4768550000000 1.0
C      1  0.4872770000000  0.4768550000000  0.4123630000000 1.0
C      1  0.4768550000000  0.4123630000000  0.4872770000000 1.0
C      1  0.4123630000000  0.5127230000000  0.5231450000000 1.0
C      1  0.5876370000000  0.4872770000000  0.5231450000000 1.0
C      1  0.5876370000000  0.5127230000000  0.4768550000000 1.0
C      1  0.4872770000000  0.5231450000000  0.5876370000000 1.0
C      1  0.5127230000000  0.4768550000000  0.5876370000000 1.0
C      1  0.5127230000000  0.5231450000000  0.4123630000000 1.0
C      1  0.4768550000000  0.5876370000000  0.5127230000000 1.0
C      1  0.5231450000000  0.4123630000000  0.5127230000000 1.0
C      1  0.5231450000000  0.5876370000000  0.4872770000000 1.0
C      1  0.4123630000000  0.4768550000000  0.4872770000000 1.0
C      1  0.4872770000000  0.4123630000000  0.4768550000000 1.0
C      1  0.4768550000000  0.4872770000000  0.4123630000000 1.0
C      1  0.4123630000000  0.5231450000000  0.5127230000000 1.0
C      1  0.5876370000000  0.5231450000000  0.4872770000000 1.0
C      1  0.5876370000000  0.4768550000000  0.5127230000000 1.0
C      1  0.4872770000000  0.5876370000000  0.5231450000000 1.0
C      1  0.5127230000000  0.5876370000000  0.4768550000000 1.0
C      1  0.5127230000000  0.4123630000000  0.5231450000000 1.0
C      1  0.4768550000000  0.5127230000000  0.5876370000000 1.0
C      1  0.5231450000000  0.5127230000000  0.4123630000000 1.0
C      1  0.5231450000000  0.4872770000000  0.5876370000000 1.0
C      1  0.4434410000000  0.5461780000000  0.4641990000000 1.0
C      1  0.5461780000000  0.4641990000000  0.4434410000000 1.0
C      1  0.4641990000000  0.4434410000000  0.5461780000000 1.0
C      1  0.4434410000000  0.4538220000000  0.5358010000000 1.0
C      1  0.5565590000000  0.5461780000000  0.5358010000000 1.0
C      1  0.5565590000000  0.4538220000000  0.4641990000000 1.0
C      1  0.5461780000000  0.5358010000000  0.5565590000000 1.0
C      1  0.4538220000000  0.4641990000000  0.5565590000000 1.0
C      1  0.4538220000000  0.5358010000000  0.4434410000000 1.0
C      1  0.4641990000000  0.5565590000000  0.4538220000000 1.0
C      1  0.5358010000000  0.4434410000000  0.4538220000000 1.0
C      1  0.5358010000000  0.5565590000000  0.5461780000000 1.0
C      1  0.4434410000000  0.4641990000000  0.5461780000000 1.0
C      1  0.5461780000000  0.4434410000000  0.4641990000000 1.0
C      1  0.4641990000000  0.5461780000000  0.4434410000000 1.0
C      1  0.4434410000000  0.5358010000000  0.4538220000000 1.0
C      1  0.5565590000000  0.5358010000000  0.5461780000000 1.0
C      1  0.5565590000000  0.4641990000000  0.4538220000000 1.0
C      1  0.5461780000000  0.5565590000000  0.5358010000000 1.0
C      1  0.4538220000000  0.5565590000000  0.4641990000000 1.0
C      1  0.4538220000000  0.4434410000000  0.5358010000000 1.0
C      1  0.4641990000000  0.4538220000000  0.5565590000000 1.0
C      1  0.5358010000000  0.4538220000000  0.4434410000000 1.0
C      1  0.5358010000000  0.5461780000000  0.5565590000000 1.0
C      1  0.4666240000000  0.4879080000000  0.5442430000000 1.0
C      1  0.4879080000000  0.5442430000000  0.4666240000000 1.0
C      1  0.5442430000000  0.4666240000000  0.4879080000000 1.0
C      1  0.4666240000000  0.5120920000000  0.4557570000000 1.0
C      1  0.5333760000000  0.4879080000000  0.4557570000000 1.0
C      1  0.5333760000000  0.5120920000000  0.5442430000000 1.0
C      1  0.4879080000000  0.4557570000000  0.5333760000000 1.0
C      1  0.5120920000000  0.5442430000000  0.5333760000000 1.0
C      1  0.5120920000000  0.4557570000000  0.4666240000000 1.0
C      1  0.5442430000000  0.5333760000000  0.5120920000000 1.0
C      1  0.4557570000000  0.4666240000000  0.5120920000000 1.0
C      1  0.4557570000000  0.5333760000000  0.4879080000000 1.0
C      1  0.4666240000000  0.5442430000000  0.4879080000000 1.0
C      1  0.4879080000000  0.4666240000000  0.5442430000000 1.0
C      1  0.5442430000000  0.4879080000000  0.4666240000000 1.0
C      1  0.4666240000000  0.4557570000000  0.5120920000000 1.0
C      1  0.5333760000000  0.4557570000000  0.4879080000000 1.0
C      1  0.5333760000000  0.5442430000000  0.5120920000000 1.0
C      1  0.4879080000000  0.5333760000000  0.4557570000000 1.0
C      1  0.5120920000000  0.5333760000000  0.5442430000000 1.0
C      1  0.5120920000000  0.4666240000000  0.4557570000000 1.0
C      1  0.5442430000000  0.5120920000000  0.5333760000000 1.0
C      1  0.4557570000000  0.5120920000000  0.4666240000000 1.0
C      1  0.4557570000000  0.4879080000000  0.5333760000000 1.0
C      1  0.5129290000000  0.5609590000000  0.4167480000000 1.0
C      1  0.5609590000000  0.4167480000000  0.5129290000000 1.0
C      1  0.4167480000000  0.5129290000000  0.5609590000000 1.0
C      1  0.5129290000000  0.4390410000000  0.5832520000000 1.0
C      1  0.4870710000000  0.5609590000000  0.5832520000000 1.0
C      1  0.4870710000000  0.4390410000000  0.4167480000000 1.0
C      1  0.5609590000000  0.5832520000000  0.4870710000000 1.0
C      1  0.4390410000000  0.4167480000000  0.4870710000000 1.0
C      1  0.4390410000000  0.5832520000000  0.5129290000000 1.0
C      1  0.4167480000000  0.4870710000000  0.4390410000000 1.0
C      1  0.5832520000000  0.5129290000000  0.4390410000000 1.0
C      1  0.5832520000000  0.4870710000000  0.5609590000000 1.0
C      1  0.5129290000000  0.4167480000000  0.5609590000000 1.0
C      1  0.5609590000000  0.5129290000000  0.4167480000000 1.0
C      1  0.4167480000000  0.5609590000000  0.5129290000000 1.0
C      1  0.5129290000000  0.5832520000000  0.4390410000000 1.0
C      1  0.4870710000000  0.5832520000000  0.5609590000000 1.0
C      1  0.4870710000000  0.4167480000000  0.4390410000000 1.0
C      1  0.5609590000000  0.4870710000000  0.5832520000000 1.0
C      1  0.4390410000000  0.4870710000000  0.4167480000000 1.0
C      1  0.4390410000000  0.5129290000000  0.5832520000000 1.0
C      1  0.4167480000000  0.4390410000000  0.4870710000000 1.0
C      1  0.5832520000000  0.4390410000000  0.5129290000000 1.0
C      1  0.5832520000000  0.5609590000000  0.4870710000000 1.0
C      1  0.5532920000000  0.5346160000000  0.4749720000000 1.0
C      1  0.5346160000000  0.4749720000000  0.5532920000000 1.0
C      1  0.4749720000000  0.5532920000000  0.5346160000000 1.0
C      1  0.5532920000000  0.4653840000000  0.5250280000000 1.0
C      1  0.4467080000000  0.5346160000000  0.5250280000000 1.0
C      1  0.4467080000000  0.4653840000000  0.4749720000000 1.0
C      1  0.5346160000000  0.5250280000000  0.4467080000000 1.0
C      1  0.4653840000000  0.4749720000000  0.4467080000000 1.0
C      1  0.4653840000000  0.5250280000000  0.5532920000000 1.0
C      1  0.4749720000000  0.4467080000000  0.4653840000000 1.0
C      1  0.5250280000000  0.5532920000000  0.4653840000000 1.0
C      1  0.5250280000000  0.4467080000000  0.5346160000000 1.0
C      1  0.5532920000000  0.4749720000000  0.5346160000000 1.0
C      1  0.5346160000000  0.5532920000000  0.4749720000000 1.0
C      1  0.4749720000000  0.5346160000000  0.5532920000000 1.0
C      1  0.5532920000000  0.5250280000000  0.4653840000000 1.0
C      1  0.4467080000000  0.5250280000000  0.5346160000000 1.0
C      1  0.4467080000000  0.4749720000000  0.4653840000000 1.0
C      1  0.5346160000000  0.4467080000000  0.5250280000000 1.0
C      1  0.4653840000000  0.4467080000000  0.4749720000000 1.0
C      1  0.4653840000000  0.5532920000000  0.5250280000000 1.0
C      1  0.4749720000000  0.4653840000000  0.4467080000000 1.0
C      1  0.5250280000000  0.4653840000000  0.5532920000000 1.0
C      1  0.5250280000000  0.5346160000000  0.4467080000000 1.0
C      1  0.5405300000000  0.4230920000000  0.4825760000000 1.0
C      1  0.4230920000000  0.4825760000000  0.5405300000000 1.0
C      1  0.4825760000000  0.5405300000000  0.4230920000000 1.0
C      1  0.5405300000000  0.5769080000000  0.5174240000000 1.0
C      1  0.4594700000000  0.4230920000000  0.5174240000000 1.0
C      1  0.4594700000000  0.5769080000000  0.4825760000000 1.0
C      1  0.4230920000000  0.5174240000000  0.4594700000000 1.0
C      1  0.5769080000000  0.4825760000000  0.4594700000000 1.0
C      1  0.5769080000000  0.5174240000000  0.5405300000000 1.0
C      1  0.4825760000000  0.4594700000000  0.5769080000000 1.0
C      1  0.5174240000000  0.5405300000000  0.5769080000000 1.0
C      1  0.5174240000000  0.4594700000000  0.4230920000000 1.0
C      1  0.5405300000000  0.4825760000000  0.4230920000000 1.0
C      1  0.4230920000000  0.5405300000000  0.4825760000000 1.0
C      1  0.4825760000000  0.4230920000000  0.5405300000000 1.0
C      1  0.5405300000000  0.5174240000000  0.5769080000000 1.0
C      1  0.4594700000000  0.5174240000000  0.4230920000000 1.0
C      1  0.4594700000000  0.4825760000000  0.5769080000000 1.0
C      1  0.4230920000000  0.4594700000000  0.5174240000000 1.0
C      1  0.5769080000000  0.4594700000000  0.4825760000000 1.0
C      1  0.5769080000000  0.5405300000000  0.5174240000000 1.0
C      1  0.4825760000000  0.5769080000000  0.4594700000000 1.0
C      1  0.5174240000000  0.5769080000000  0.5405300000000 1.0
C      1  0.5174240000000  0.4230920000000  0.4594700000000 1.0
C      1  0.5275650000000  0.5480320000000  0.4422490000000 1.0
C      1  0.5480320000000  0.4422490000000  0.5275650000000 1.0
C      1  0.4422490000000  0.5275650000000  0.5480320000000 1.0
C      1  0.5275650000000  0.4519680000000  0.5577510000000 1.0
C      1  0.4724350000000  0.5480320000000  0.5577510000000 1.0
C      1  0.4724350000000  0.4519680000000  0.4422490000000 1.0
C      1  0.5480320000000  0.5577510000000  0.4724350000000 1.0
C      1  0.4519680000000  0.4422490000000  0.4724350000000 1.0
C      1  0.4519680000000  0.5577510000000  0.5275650000000 1.0
C      1  0.4422490000000  0.4724350000000  0.4519680000000 1.0
C      1  0.5577510000000  0.5275650000000  0.4519680000000 1.0
C      1  0.5577510000000  0.4724350000000  0.5480320000000 1.0
C      1  0.5275650000000  0.4422490000000  0.5480320000000 1.0
C      1  0.5480320000000  0.5275650000000  0.4422490000000 1.0
C      1  0.4422490000000  0.5480320000000  0.5275650000000 1.0
C      1  0.5275650000000  0.5577510000000  0.4519680000000 1.0
C      1  0.4724350000000  0.5577510000000  0.5480320000000 1.0
C      1  0.4724350000000  0.4422490000000  0.4519680000000 1.0
C      1  0.5480320000000  0.4724350000000  0.5577510000000 1.0
C      1  0.4519680000000  0.4724350000000  0.4422490000000 1.0
C      1  0.4519680000000  0.5275650000000  0.5577510000000 1.0
C      1  0.4422490000000  0.4519680000000  0.4724350000000 1.0
C      1  0.5577510000000  0.4519680000000  0.5275650000000 1.0
C      1  0.5577510000000  0.5480320000000  0.4724350000000 1.0
C      1  0.4514820000000  0.5841490000000  0.5069550000000 1.0
C      1  0.5841490000000  0.5069550000000  0.4514820000000 1.0
C      1  0.5069550000000  0.4514820000000  0.5841490000000 1.0
C      1  0.4514820000000  0.4158510000000  0.4930450000000 1.0
C      1  0.5485180000000  0.5841490000000  0.4930450000000 1.0
C      1  0.5485180000000  0.4158510000000  0.5069550000000 1.0
C      1  0.5841490000000  0.4930450000000  0.5485180000000 1.0
C      1  0.4158510000000  0.5069550000000  0.5485180000000 1.0
C      1  0.4158510000000  0.4930450000000  0.4514820000000 1.0
C      1  0.5069550000000  0.5485180000000  0.4158510000000 1.0
C      1  0.4930450000000  0.4514820000000  0.4158510000000 1.0
C      1  0.4930450000000  0.5485180000000  0.5841490000000 1.0
C      1  0.4514820000000  0.5069550000000  0.5841490000000 1.0
C      1  0.5841490000000  0.4514820000000  0.5069550000000 1.0
C      1  0.5069550000000  0.5841490000000  0.4514820000000 1.0
C      1  0.4514820000000  0.4930450000000  0.4158510000000 1.0
C      1  0.5485180000000  0.4930450000000  0.5841490000000 1.0
C      1  0.5485180000000  0.5069550000000  0.4158510000000 1.0
C      1  0.5841490000000  0.5485180000000  0.4930450000000 1.0
C      1  0.4158510000000  0.5485180000000  0.5069550000000 1.0
C      1  0.4158510000000  0.4514820000000  0.4930450000000 1.0
C      1  0.5069550000000  0.4158510000000  0.5485180000000 1.0
C      1  0.4930450000000  0.4158510000000  0.4514820000000 1.0
C      1  0.4930450000000  0.5841490000000  0.5485180000000 1.0
C      1  0.4345110000000  0.4752030000000  0.5069350000000 1.0
C      1  0.4752030000000  0.5069350000000  0.4345110000000 1.0
C      1  0.5069350000000  0.4345110000000  0.4752030000000 1.0
C      1  0.4345110000000  0.5247970000000  0.4930650000000 1.0
C      1  0.5654890000000  0.4752030000000  0.4930650000000 1.0
C      1  0.5654890000000  0.5247970000000  0.5069350000000 1.0
C      1  0.4752030000000  0.4930650000000  0.5654890000000 1.0
C      1  0.5247970000000  0.5069350000000  0.5654890000000 1.0
C      1  0.5247970000000  0.4930650000000  0.4345110000000 1.0
C      1  0.5069350000000  0.5654890000000  0.5247970000000 1.0
C      1  0.4930650000000  0.4345110000000  0.5247970000000 1.0
C      1  0.4930650000000  0.5654890000000  0.4752030000000 1.0
C      1  0.4345110000000  0.5069350000000  0.4752030000000 1.0
C      1  0.4752030000000  0.4345110000000  0.5069350000000 1.0
C      1  0.5069350000000  0.4752030000000  0.4345110000000 1.0
C      1  0.4345110000000  0.4930650000000  0.5247970000000 1.0
C      1  0.5654890000000  0.4930650000000  0.4752030000000 1.0
C      1  0.5654890000000  0.5069350000000  0.5247970000000 1.0
C      1  0.4752030000000  0.5654890000000  0.4930650000000 1.0
C      1  0.5247970000000  0.5654890000000  0.5069350000000 1.0
C      1  0.5247970000000  0.4345110000000  0.4930650000000 1.0
C      1  0.5069350000000  0.5247970000000  0.5654890000000 1.0
C      1  0.4930650000000  0.5247970000000  0.4345110000000 1.0
C      1  0.4930650000000  0.4752030000000  0.5654890000000 1.0
END
