TITL C-1887014-576-17 -6.39889922755844e-07 1000000 -2618.10397548956 0 0 380 (Cs) n - 1
REM
REM in /nfs/bkarasulu/CARBON/AIRSS/Generating-Clusters/GAP-ML-2020/Higher-Symm/Selected-Sizes/TryA-Only_Ih-Symm/Larger-Clusters
REM
REM
REM
REM
REM
REM ./C.cell (2cf5181f0f1d4d5b12b972d32ad12063)
REM
REM compiler GCC version 9.2.1 20190827 (Red Hat 9.2.1-1)
REM options -cpp -mtune=generic -march=x86-64 -g -O0 -fpre-include=/usr/include/finclude/math-vector-fortran.h
REM seed -1768490633 398180884 -1777778739 196688992 255614141 -1070874964 1457452048 -211731100 -1425862532 -1948313713 60532438 -209542797 -1681196735 -649169183 -1891506145 1928534471 2115381571 1299489402 327608517 1460696405 -333903596 1753958175 -406557111 -1692182625 2076858621 -816982700 252082464 -1868345563 1981126114 -576097578 -60623252 1224775305 1921756031
REM
CELL 1.54180  100.00000  100.00000  100.00000   90.00000   90.00000   90.00000
LATT -1
SFAC C  
C      1  0.4862500000000  0.5310920000000  0.5079570000000 1.0
C      1  0.5320440000000  0.5090340000000  0.4833860000000 1.0
C      1  0.5103540000000  0.4845540000000  0.5288080000000 1.0
C      1  0.5189420000000  0.5295390000000  0.4923440000000 1.0
C      1  0.5182810000000  0.4731380000000  0.5076250000000 1.0
C      1  0.4853940000000  0.4728210000000  0.4921810000000 1.0
C      1  0.4744940000000  0.5098710000000  0.5164410000000 1.0
C      1  0.4743100000000  0.4943760000000  0.4837580000000 1.0
C      1  0.5316800000000  0.4931880000000  0.5166140000000 1.0
C      1  0.4946950000000  0.4846320000000  0.4710890000000 1.0
C      1  0.4954940000000  0.5178260000000  0.5284470000000 1.0
C      1  0.5109610000000  0.5176840000000  0.4713430000000 1.0
C      1  0.4853940000000  0.4728210000000  0.5078960000000 1.0
C      1  0.5316800000000  0.4931890000000  0.4834630000000 1.0
C      1  0.5109610000000  0.5176830000000  0.5287350000000 1.0
C      1  0.5182810000000  0.4731380000000  0.4924520000000 1.0
C      1  0.5189420000000  0.5295390000000  0.5077340000000 1.0
C      1  0.4862500000000  0.5310930000000  0.4921200000000 1.0
C      1  0.4743100000000  0.4943760000000  0.5163190000000 1.0
C      1  0.4744940000000  0.5098710000000  0.4836370000000 1.0
C      1  0.5320440000000  0.5090330000000  0.5166920000000 1.0
C      1  0.4954940000000  0.5178260000000  0.4716310000000 1.0
C      1  0.4946950000000  0.4846320000000  0.5289880000000 1.0
C      1  0.5103540000000  0.4845550000000  0.4712690000000 1.0
C      1  0.4827910000000  0.5049490000000  0.5858950000000 1.0
C      1  0.5046700000000  0.5836220000000  0.4841520000000 1.0
C      1  0.5829240000000  0.4836930000000  0.5061380000000 1.0
C      1  0.5148510000000  0.5054360000000  0.4131750000000 1.0
C      1  0.5143570000000  0.4932430000000  0.5865790000000 1.0
C      1  0.4819920000000  0.4928010000000  0.4151840000000 1.0
C      1  0.4925010000000  0.5829970000000  0.5160440000000 1.0
C      1  0.4924860000000  0.4128480000000  0.4840680000000 1.0
C      1  0.5046860000000  0.4131240000000  0.5162660000000 1.0
C      1  0.4136350000000  0.4833830000000  0.4939400000000 1.0
C      1  0.4135400000000  0.5153800000000  0.5061360000000 1.0
C      1  0.5830250000000  0.5158040000000  0.4939330000000 1.0
C      1  0.4819910000000  0.4928000000000  0.5848940000000 1.0
C      1  0.5046850000000  0.4131250000000  0.4838110000000 1.0
C      1  0.5830250000000  0.5158040000000  0.5061450000000 1.0
C      1  0.5143580000000  0.4932440000000  0.4134990000000 1.0
C      1  0.5148510000000  0.5054350000000  0.5869030000000 1.0
C      1  0.4827910000000  0.5049500000000  0.4141830000000 1.0
C      1  0.4924860000000  0.4128470000000  0.5160090000000 1.0
C      1  0.4925010000000  0.5829970000000  0.4840350000000 1.0
C      1  0.5046700000000  0.5836220000000  0.5159270000000 1.0
C      1  0.4135400000000  0.5153810000000  0.4939420000000 1.0
C      1  0.4136350000000  0.4833830000000  0.5061390000000 1.0
C      1  0.5829240000000  0.4836930000000  0.4939400000000 1.0
C      1  0.4713470000000  0.4945680000000  0.5321090000000 1.0
C      1  0.4955240000000  0.5336270000000  0.4682450000000 1.0
C      1  0.5337960000000  0.4694470000000  0.4923530000000 1.0
C      1  0.5339110000000  0.4931520000000  0.4676820000000 1.0
C      1  0.5341640000000  0.5082700000000  0.5325290000000 1.0
C      1  0.4717520000000  0.5100080000000  0.4681450000000 1.0
C      1  0.5111870000000  0.5331270000000  0.5316090000000 1.0
C      1  0.5104150000000  0.4689130000000  0.4690510000000 1.0
C      1  0.4950020000000  0.4688120000000  0.5314260000000 1.0
C      1  0.4695740000000  0.4708390000000  0.5079210000000 1.0
C      1  0.4704570000000  0.5331250000000  0.4925020000000 1.0
C      1  0.5348080000000  0.5331070000000  0.5078210000000 1.0
C      1  0.4717520000000  0.5100080000000  0.5319330000000 1.0
C      1  0.4950020000000  0.4688130000000  0.4686510000000 1.0
C      1  0.5348090000000  0.5331070000000  0.4922570000000 1.0
C      1  0.5341640000000  0.5082710000000  0.4675490000000 1.0
C      1  0.5339110000000  0.4931520000000  0.5323960000000 1.0
C      1  0.4713470000000  0.4945690000000  0.4679680000000 1.0
C      1  0.5104150000000  0.4689130000000  0.5310260000000 1.0
C      1  0.5111870000000  0.5331270000000  0.4684690000000 1.0
C      1  0.4955240000000  0.5336260000000  0.5318330000000 1.0
C      1  0.4704570000000  0.5331250000000  0.5075760000000 1.0
C      1  0.4695750000000  0.4708390000000  0.4921570000000 1.0
C      1  0.5337960000000  0.4694460000000  0.5077240000000 1.0
C      1  0.4688010000000  0.4577350000000  0.4703040000000 1.0
C      1  0.4515130000000  0.4797150000000  0.4709380000000 1.0
C      1  0.4720380000000  0.4658490000000  0.4583080000000 1.0
C      1  0.5300390000000  0.4495480000000  0.5227110000000 1.0
C      1  0.5316450000000  0.5524610000000  0.4757110000000 1.0
C      1  0.4657440000000  0.5431130000000  0.5299880000000 1.0
C      1  0.5438770000000  0.4700610000000  0.5362880000000 1.0
C      1  0.5444730000000  0.5306200000000  0.4629630000000 1.0
C      1  0.4576610000000  0.5310720000000  0.5325320000000 1.0
C      1  0.5319080000000  0.4673780000000  0.5444570000000 1.0
C      1  0.5326500000000  0.5332220000000  0.4545820000000 1.0
C      1  0.4789790000000  0.5302840000000  0.5508300000000 1.0
C      1  0.4657440000000  0.5431140000000  0.4700910000000 1.0
C      1  0.4576610000000  0.5310730000000  0.4675460000000 1.0
C      1  0.4789790000000  0.5302850000000  0.4492470000000 1.0
C      1  0.5316450000000  0.5524610000000  0.5243670000000 1.0
C      1  0.5300390000000  0.4495480000000  0.4773660000000 1.0
C      1  0.4688010000000  0.4577350000000  0.5297730000000 1.0
C      1  0.5444730000000  0.5306190000000  0.5371150000000 1.0
C      1  0.5438770000000  0.4700610000000  0.4637900000000 1.0
C      1  0.4515130000000  0.4797150000000  0.5291400000000 1.0
C      1  0.5326500000000  0.5332210000000  0.5454960000000 1.0
C      1  0.5319080000000  0.4673790000000  0.4556200000000 1.0
C      1  0.4720380000000  0.4658490000000  0.5417700000000 1.0
C      1  0.4361320000000  0.4822890000000  0.5589220000000 1.0
C      1  0.4837910000000  0.5590680000000  0.4374860000000 1.0
C      1  0.5581840000000  0.4377790000000  0.4853160000000 1.0
C      1  0.5611190000000  0.4843480000000  0.4374580000000 1.0
C      1  0.5616500000000  0.5149010000000  0.5630580000000 1.0
C      1  0.4368730000000  0.5151440000000  0.4406730000000 1.0
C      1  0.5140530000000  0.5607000000000  0.5636710000000 1.0
C      1  0.5146510000000  0.4389970000000  0.4372550000000 1.0
C      1  0.4830650000000  0.4397560000000  0.5613830000000 1.0
C      1  0.4401740000000  0.4374280000000  0.5163670000000 1.0
C      1  0.4391500000000  0.5608870000000  0.4844040000000 1.0
C      1  0.5585400000000  0.5619690000000  0.5149000000000 1.0
C      1  0.4368730000000  0.5151430000000  0.5594050000000 1.0
C      1  0.4830660000000  0.4397570000000  0.4386940000000 1.0
C      1  0.5585400000000  0.5619690000000  0.4851790000000 1.0
C      1  0.5616500000000  0.5149020000000  0.4370200000000 1.0
C      1  0.5611190000000  0.4843470000000  0.5626190000000 1.0
C      1  0.4361340000000  0.4822910000000  0.4411570000000 1.0
C      1  0.5146510000000  0.4389970000000  0.5628220000000 1.0
C      1  0.5140530000000  0.5607020000000  0.4364080000000 1.0
C      1  0.4837910000000  0.5590660000000  0.5625930000000 1.0
C      1  0.4391500000000  0.5608870000000  0.5156750000000 1.0
C      1  0.4401750000000  0.4374290000000  0.4837120000000 1.0
C      1  0.5581840000000  0.4377790000000  0.5147610000000 1.0
C      1  0.5285920000000  0.4153160000000  0.5074450000000 1.0
C      1  0.4149420000000  0.5066990000000  0.5300520000000 1.0
C      1  0.5062550000000  0.5295480000000  0.4149810000000 1.0
C      1  0.4684000000000  0.4143480000000  0.4926580000000 1.0
C      1  0.4686580000000  0.5821230000000  0.5074700000000 1.0
C      1  0.5286480000000  0.5836730000000  0.4926530000000 1.0
C      1  0.5808320000000  0.5071320000000  0.4699440000000 1.0
C      1  0.5807590000000  0.4923530000000  0.5301010000000 1.0
C      1  0.4145310000000  0.4919460000000  0.4699740000000 1.0
C      1  0.4914650000000  0.5292600000000  0.5850540000000 1.0
C      1  0.4905340000000  0.4689770000000  0.4164860000000 1.0
C      1  0.5053210000000  0.4691660000000  0.5841230000000 1.0
C      1  0.5286480000000  0.5836730000000  0.5074270000000 1.0
C      1  0.4145300000000  0.4919450000000  0.5301050000000 1.0
C      1  0.5053220000000  0.4691670000000  0.4159540000000 1.0
C      1  0.4686580000000  0.5821230000000  0.4926090000000 1.0
C      1  0.4684000000000  0.4143470000000  0.5074190000000 1.0
C      1  0.5285920000000  0.4153160000000  0.4926320000000 1.0
C      1  0.5807600000000  0.4923530000000  0.4699770000000 1.0
C      1  0.5808320000000  0.5071320000000  0.5301350000000 1.0
C      1  0.4149420000000  0.5066990000000  0.4700260000000 1.0
C      1  0.4905340000000  0.4689760000000  0.5835910000000 1.0
C      1  0.4914650000000  0.5292610000000  0.4150250000000 1.0
C      1  0.5062550000000  0.5295470000000  0.5850980000000 1.0
C      1  0.5766870000000  0.4923220000000  0.4559740000000 1.0
C      1  0.4908160000000  0.4548790000000  0.5800210000000 1.0
C      1  0.4543620000000  0.5793710000000  0.4926210000000 1.0
C      1  0.4180720000000  0.4917690000000  0.5441460000000 1.0
C      1  0.4185990000000  0.5067030000000  0.4559500000000 1.0
C      1  0.5768260000000  0.5070780000000  0.5441760000000 1.0
C      1  0.5055750000000  0.4551050000000  0.4198530000000 1.0
C      1  0.5059840000000  0.5435580000000  0.5808340000000 1.0
C      1  0.4912240000000  0.5431150000000  0.4192880000000 1.0
C      1  0.5428270000000  0.5805370000000  0.5075130000000 1.0
C      1  0.5425930000000  0.4192250000000  0.4926130000000 1.0
C      1  0.4545690000000  0.4187020000000  0.5074830000000 1.0
C      1  0.5768260000000  0.5070780000000  0.4559030000000 1.0
C      1  0.4912240000000  0.5431140000000  0.5807910000000 1.0
C      1  0.4545690000000  0.4187030000000  0.4925940000000 1.0
C      1  0.4185990000000  0.5067030000000  0.5441280000000 1.0
C      1  0.4180730000000  0.4917690000000  0.4559330000000 1.0
C      1  0.5766870000000  0.4923210000000  0.5441050000000 1.0
C      1  0.5059850000000  0.5435590000000  0.4192450000000 1.0
C      1  0.5055750000000  0.4551050000000  0.5802240000000 1.0
C      1  0.4908170000000  0.4548790000000  0.4200560000000 1.0
C      1  0.5425940000000  0.4192250000000  0.5074640000000 1.0
C      1  0.5428270000000  0.5805370000000  0.4925660000000 1.0
C      1  0.4543620000000  0.5793710000000  0.5074580000000 1.0
C      1  0.4755890000000  0.5491570000000  0.5373940000000 1.0
C      1  0.5501300000000  0.5379570000000  0.4731510000000 1.0
C      1  0.5347900000000  0.4786790000000  0.5527400000000 1.0
C      1  0.5245670000000  0.5538040000000  0.4643990000000 1.0
C      1  0.5229210000000  0.4471800000000  0.5338010000000 1.0
C      1  0.4796510000000  0.4488680000000  0.4673200000000 1.0
C      1  0.4494390000000  0.5339600000000  0.5211610000000 1.0
C      1  0.4486320000000  0.4684700000000  0.4774920000000 1.0
C      1  0.5495820000000  0.4625630000000  0.5261410000000 1.0
C      1  0.4646310000000  0.4755210000000  0.4518430000000 1.0
C      1  0.4678250000000  0.5231870000000  0.5528860000000 1.0
C      1  0.5355420000000  0.5216830000000  0.4466080000000 1.0
C      1  0.4796510000000  0.4488680000000  0.5327570000000 1.0
C      1  0.5495820000000  0.4625630000000  0.4739370000000 1.0
C      1  0.5355420000000  0.5216820000000  0.5534700000000 1.0
C      1  0.5229210000000  0.4471810000000  0.4662760000000 1.0
C      1  0.5245670000000  0.5538030000000  0.5356790000000 1.0
C      1  0.4755890000000  0.5491580000000  0.4626840000000 1.0
C      1  0.4486320000000  0.4684700000000  0.5225860000000 1.0
C      1  0.4494390000000  0.5339600000000  0.4789170000000 1.0
C      1  0.5501290000000  0.5379560000000  0.5269270000000 1.0
C      1  0.4678250000000  0.5231870000000  0.4471920000000 1.0
C      1  0.4646310000000  0.4755200000000  0.5482340000000 1.0
C      1  0.5347910000000  0.4786800000000  0.4473380000000 1.0
C      1  0.4862650000000  0.5665670000000  0.5510010000000 1.0
C      1  0.5656630000000  0.5501250000000  0.4872890000000 1.0
C      1  0.5499080000000  0.4873530000000  0.5704320000000 1.0
C      1  0.5114490000000  0.5682310000000  0.4480870000000 1.0
C      1  0.5117620000000  0.4317940000000  0.5511600000000 1.0
C      1  0.4866240000000  0.4323900000000  0.4499870000000 1.0
C      1  0.4320340000000  0.5493460000000  0.5124300000000 1.0
C      1  0.4342810000000  0.4496260000000  0.4869210000000 1.0
C      1  0.5654030000000  0.4495940000000  0.5125730000000 1.0
C      1  0.4484770000000  0.4854640000000  0.4356540000000 1.0
C      1  0.4489240000000  0.5117210000000  0.5656280000000 1.0
C      1  0.5504230000000  0.5119490000000  0.4292360000000 1.0
C      1  0.4866240000000  0.4323900000000  0.5500900000000 1.0
C      1  0.5654030000000  0.4495940000000  0.4875040000000 1.0
C      1  0.5504220000000  0.5119480000000  0.5708420000000 1.0
C      1  0.5117620000000  0.4317950000000  0.4489170000000 1.0
C      1  0.5114490000000  0.5682300000000  0.5519920000000 1.0
C      1  0.4862660000000  0.5665690000000  0.4490780000000 1.0
C      1  0.4342810000000  0.4496250000000  0.5131580000000 1.0
C      1  0.4320340000000  0.5493460000000  0.4876490000000 1.0
C      1  0.5656630000000  0.5501250000000  0.5127900000000 1.0
C      1  0.4489230000000  0.5117230000000  0.4344500000000 1.0
C      1  0.4484760000000  0.4854620000000  0.5644230000000 1.0
C      1  0.5499090000000  0.4873540000000  0.4296460000000 1.0
C      1  0.4623840000000  0.4633740000000  0.5184150000000 1.0
C      1  0.4633670000000  0.5198210000000  0.4612010000000 1.0
C      1  0.5202460000000  0.4611400000000  0.4609970000000 1.0
C      1  0.5379680000000  0.4591390000000  0.4826360000000 1.0
C      1  0.5388410000000  0.5426100000000  0.5183550000000 1.0
C      1  0.4616740000000  0.5412470000000  0.4842420000000 1.0
C      1  0.5426680000000  0.5163790000000  0.5411450000000 1.0
C      1  0.5421180000000  0.4842890000000  0.4594480000000 1.0
C      1  0.4615460000000  0.4847140000000  0.5366670000000 1.0
C      1  0.4859290000000  0.4610120000000  0.5395350000000 1.0
C      1  0.4850280000000  0.5379460000000  0.4586720000000 1.0
C      1  0.5211960000000  0.5398670000000  0.5403000000000 1.0
C      1  0.4616730000000  0.5412460000000  0.5158360000000 1.0
C      1  0.4615460000000  0.4847150000000  0.4634100000000 1.0
C      1  0.5211960000000  0.5398670000000  0.4597790000000 1.0
C      1  0.5388410000000  0.5426110000000  0.4817230000000 1.0
C      1  0.5379680000000  0.4591380000000  0.5174420000000 1.0
C      1  0.4623840000000  0.4633740000000  0.4816630000000 1.0
C      1  0.5421170000000  0.4842880000000  0.5406300000000 1.0
C      1  0.5426680000000  0.5163790000000  0.4589330000000 1.0
C      1  0.4633670000000  0.5198200000000  0.5388770000000 1.0
C      1  0.4850280000000  0.5379450000000  0.5414060000000 1.0
C      1  0.4859290000000  0.4610120000000  0.4605420000000 1.0
C      1  0.5202460000000  0.4611390000000  0.5390800000000 1.0
C      1  0.5367420000000  0.4810960000000  0.4335760000000 1.0
C      1  0.4804990000000  0.4352200000000  0.5365180000000 1.0
C      1  0.4357300000000  0.5361240000000  0.4813280000000 1.0
C      1  0.4611830000000  0.4779040000000  0.5621680000000 1.0
C      1  0.4618690000000  0.5193910000000  0.4344900000000 1.0
C      1  0.5374570000000  0.5186740000000  0.5671050000000 1.0
C      1  0.5186020000000  0.4339640000000  0.4619880000000 1.0
C      1  0.5198350000000  0.5668620000000  0.5397430000000 1.0
C      1  0.4783670000000  0.5631880000000  0.4612780000000 1.0
C      1  0.5635890000000  0.5385460000000  0.5219150000000 1.0
C      1  0.5631660000000  0.4612500000000  0.4785640000000 1.0
C      1  0.4354480000000  0.4627680000000  0.5202690000000 1.0
C      1  0.5374570000000  0.5186750000000  0.4329730000000 1.0
C      1  0.4783670000000  0.5631870000000  0.5388010000000 1.0
C      1  0.4354490000000  0.4627690000000  0.4798100000000 1.0
C      1  0.4618690000000  0.5193890000000  0.5655880000000 1.0
C      1  0.4611830000000  0.4779050000000  0.4379090000000 1.0
C      1  0.5367410000000  0.4810950000000  0.5665020000000 1.0
C      1  0.5198350000000  0.5668630000000  0.4603360000000 1.0
C      1  0.5186020000000  0.4339640000000  0.5380900000000 1.0
C      1  0.4804990000000  0.4352200000000  0.4635590000000 1.0
C      1  0.5631660000000  0.4612500000000  0.5215140000000 1.0
C      1  0.5635890000000  0.5385460000000  0.4781630000000 1.0
C      1  0.4357300000000  0.5361240000000  0.5187500000000 1.0
C      1  0.4787390000000  0.4165880000000  0.5172380000000 1.0
C      1  0.4174630000000  0.5165040000000  0.4802630000000 1.0
C      1  0.5153750000000  0.4794750000000  0.4172990000000 1.0
C      1  0.5185040000000  0.4165520000000  0.4824120000000 1.0
C      1  0.5188320000000  0.5820060000000  0.5178070000000 1.0
C      1  0.4785500000000  0.5798610000000  0.4823560000000 1.0
C      1  0.5799530000000  0.5174450000000  0.5201610000000 1.0
C      1  0.5798470000000  0.4820700000000  0.4799490000000 1.0
C      1  0.4167310000000  0.4819590000000  0.5200190000000 1.0
C      1  0.4804860000000  0.4791050000000  0.5811160000000 1.0
C      1  0.4814510000000  0.5190620000000  0.4164010000000 1.0
C      1  0.5163850000000  0.5192980000000  0.5836920000000 1.0
C      1  0.4785500000000  0.5798610000000  0.5177230000000 1.0
C      1  0.4167320000000  0.4819600000000  0.4800600000000 1.0
C      1  0.5163850000000  0.5192980000000  0.4163860000000 1.0
C      1  0.5188320000000  0.5820060000000  0.4822730000000 1.0
C      1  0.5185050000000  0.4165520000000  0.5176660000000 1.0
C      1  0.4787390000000  0.4165890000000  0.4828390000000 1.0
C      1  0.5798470000000  0.4820700000000  0.5201290000000 1.0
C      1  0.5799530000000  0.5174450000000  0.4799170000000 1.0
C      1  0.4174630000000  0.5165030000000  0.5198150000000 1.0
C      1  0.4814510000000  0.5190610000000  0.5836770000000 1.0
C      1  0.4804870000000  0.4791060000000  0.4189620000000 1.0
C      1  0.5153740000000  0.4794750000000  0.5827780000000 1.0
C      1  0.5193180000000  0.4244530000000  0.4713690000000 1.0
C      1  0.4252630000000  0.4713780000000  0.5211890000000 1.0
C      1  0.4701360000000  0.5200860000000  0.4240400000000 1.0
C      1  0.4783070000000  0.4261010000000  0.5270710000000 1.0
C      1  0.4764730000000  0.5718920000000  0.4713600000000 1.0
C      1  0.5210370000000  0.5757200000000  0.5297030000000 1.0
C      1  0.5722770000000  0.4709700000000  0.4774790000000 1.0
C      1  0.5724160000000  0.5285600000000  0.5227630000000 1.0
C      1  0.4271980000000  0.5260700000000  0.4794240000000 1.0
C      1  0.5270440000000  0.5203080000000  0.5752710000000 1.0
C      1  0.5262480000000  0.4790860000000  0.4255690000000 1.0
C      1  0.4703490000000  0.4778580000000  0.5719620000000 1.0
C      1  0.5210380000000  0.5757210000000  0.4703760000000 1.0
C      1  0.4271980000000  0.5260690000000  0.5206540000000 1.0
C      1  0.4703500000000  0.4778580000000  0.4281150000000 1.0
C      1  0.4764730000000  0.5718920000000  0.5287190000000 1.0
C      1  0.4783070000000  0.4261020000000  0.4730060000000 1.0
C      1  0.5193180000000  0.4244520000000  0.5287080000000 1.0
C      1  0.5724160000000  0.5285610000000  0.4773160000000 1.0
C      1  0.5722770000000  0.4709700000000  0.5225990000000 1.0
C      1  0.4252630000000  0.4713790000000  0.4788910000000 1.0
C      1  0.5262480000000  0.4790850000000  0.5745080000000 1.0
C      1  0.5270440000000  0.5203090000000  0.4248080000000 1.0
C      1  0.4701360000000  0.5200850000000  0.5760380000000 1.0
C      1  0.4461040000000  0.4266280000000  0.4855430000000 1.0
C      1  0.4254370000000  0.4843660000000  0.4472750000000 1.0
C      1  0.4842520000000  0.4458600000000  0.4278710000000 1.0
C      1  0.5515510000000  0.4273160000000  0.5137170000000 1.0
C      1  0.5512980000000  0.5719440000000  0.4864050000000 1.0
C      1  0.4454290000000  0.5715030000000  0.5140260000000 1.0
C      1  0.5698830000000  0.4856690000000  0.5539180000000 1.0
C      1  0.5702340000000  0.5136710000000  0.4459130000000 1.0
C      1  0.4263260000000  0.5134670000000  0.5530060000000 1.0
C      1  0.5124760000000  0.4458490000000  0.5729820000000 1.0
C      1  0.5120650000000  0.5533120000000  0.4266210000000 1.0
C      1  0.4846260000000  0.5519040000000  0.5727270000000 1.0
C      1  0.4454290000000  0.5715040000000  0.4860530000000 1.0
C      1  0.4263260000000  0.5134670000000  0.4470720000000 1.0
C      1  0.4846260000000  0.5519060000000  0.4273520000000 1.0
C      1  0.5512980000000  0.5719430000000  0.5136750000000 1.0
C      1  0.5515510000000  0.4273160000000  0.4863600000000 1.0
C      1  0.4461040000000  0.4266270000000  0.5145350000000 1.0
C      1  0.5702340000000  0.5136700000000  0.5541650000000 1.0
C      1  0.5698830000000  0.4856700000000  0.4461600000000 1.0
C      1  0.4254360000000  0.4843650000000  0.5528040000000 1.0
C      1  0.5120650000000  0.5533110000000  0.5734580000000 1.0
C      1  0.5124770000000  0.4458490000000  0.4270950000000 1.0
C      1  0.4842520000000  0.4458590000000  0.5722060000000 1.0
C      1  0.5099320000000  0.5371060000000  0.4836610000000 1.0
C      1  0.5386790000000  0.4842520000000  0.5071500000000 1.0
C      1  0.4869430000000  0.5085720000000  0.5358080000000 1.0
C      1  0.4959200000000  0.5381330000000  0.5167870000000 1.0
C      1  0.4952730000000  0.4654640000000  0.4841860000000 1.0
C      1  0.5090640000000  0.4655030000000  0.5157560000000 1.0
C      1  0.4664960000000  0.4862500000000  0.4931290000000 1.0
C      1  0.4670720000000  0.5177650000000  0.5069120000000 1.0
C      1  0.5392560000000  0.5179450000000  0.4928760000000 1.0
C      1  0.5187770000000  0.5078730000000  0.4641670000000 1.0
C      1  0.5185100000000  0.4940920000000  0.5360300000000 1.0
C      1  0.4864000000000  0.4945780000000  0.4638770000000 1.0
C      1  0.5090640000000  0.4655030000000  0.4843210000000 1.0
C      1  0.5392570000000  0.5179450000000  0.5072020000000 1.0
C      1  0.4864010000000  0.4945780000000  0.5362010000000 1.0
C      1  0.4952730000000  0.4654640000000  0.5158920000000 1.0
C      1  0.4959200000000  0.5381330000000  0.4832910000000 1.0
C      1  0.5099320000000  0.5371060000000  0.5164170000000 1.0
C      1  0.4670720000000  0.5177650000000  0.4931660000000 1.0
C      1  0.4664960000000  0.4862500000000  0.5069480000000 1.0
C      1  0.5386790000000  0.4842520000000  0.4929280000000 1.0
C      1  0.5185100000000  0.4940920000000  0.4640480000000 1.0
C      1  0.5187770000000  0.5078720000000  0.5359110000000 1.0
C      1  0.4869430000000  0.5085730000000  0.4642690000000 1.0
C      1  0.4261030000000  0.5487720000000  0.5000390000000 1.0
C      1  0.5494440000000  0.4995590000000  0.4233760000000 1.0
C      1  0.5707990000000  0.4512000000000  0.5000390000000 1.0
C      1  0.4501340000000  0.4984290000000  0.5680930000000 1.0
C      1  0.4990370000000  0.4266880000000  0.5499680000000 1.0
C      1  0.4990370000000  0.4266890000000  0.4501090000000 1.0
C      1  0.4985580000000  0.5724070000000  0.5497750000000 1.0
C      1  0.4985580000000  0.5724090000000  0.4503040000000 1.0
C      1  0.5696590000000  0.5481330000000  0.5000390000000 1.0
C      1  0.4311070000000  0.4509740000000  0.5000400000000 1.0
C      1  0.4501340000000  0.4984310000000  0.4319830000000 1.0
C      1  0.5494440000000  0.4995580000000  0.5767010000000 1.0
C      1  0.5179780000000  0.4861380000000  0.4844720000000 1.0
C      1  0.4869970000000  0.4858390000000  0.5157410000000 1.0
C      1  0.4875680000000  0.5176070000000  0.4847380000000 1.0
C      1  0.5187430000000  0.5165130000000  0.5156490000000 1.0
C      1  0.5187430000000  0.5165130000000  0.4844290000000 1.0
C      1  0.4875680000000  0.5176070000000  0.5153400000000 1.0
C      1  0.4869970000000  0.4858390000000  0.4843370000000 1.0
C      1  0.5179780000000  0.4861380000000  0.5156050000000 1.0
END
