TITL C-1887011-2105-36 -5.34985462627935e-07 1000000 -2153.40410834593 0 0 320 (C3) n - 1
REM
REM in /nfs/bkarasulu/CARBON/AIRSS/Generating-Clusters/GAP-ML-2020/Higher-Symm/Selected-Sizes/TryA-Only_Ih-Symm/Larger-Clusters
REM
REM
REM
REM
REM
REM ./C.cell (2cf5181f0f1d4d5b12b972d32ad12063)
REM
REM compiler GCC version 9.2.1 20190827 (Red Hat 9.2.1-1)
REM options -cpp -mtune=generic -march=x86-64 -g -O0 -fpre-include=/usr/include/finclude/math-vector-fortran.h
REM seed -46414822 -1352354859 -841857434 1803245912 1153697223 -1058204371 757071635 -916403948 1573422549 1139588390 1729076826 -1831651845 -638017200 -1728511102 -1707211347 -2110385130 -795041161 40878706 587333653 11797161 -639186964 -445200630 -1493314047 1950197345 1977369033 -229949443 -1093994482 -1300594529 -123869671 -503960194 367916881 -939789291 -136894908
REM
CELL 1.54180  100.00000  100.00000  100.00000   90.00000   90.00000   90.00000
LATT -1
SFAC C  
C      1  0.5894110000000  0.4948970000000  0.4918430000000 1.0
C      1  0.4919930000000  0.5900160000000  0.4913700000000 1.0
C      1  0.4912580000000  0.4916660000000  0.5903390000000 1.0
C      1  0.5903130000000  0.5088920000000  0.5085090000000 1.0
C      1  0.4101340000000  0.5088080000000  0.4920180000000 1.0
C      1  0.4110290000000  0.4948360000000  0.5087380000000 1.0
C      1  0.4918160000000  0.4107370000000  0.5052860000000 1.0
C      1  0.5084830000000  0.4098350000000  0.4912910000000 1.0
C      1  0.5087130000000  0.5891180000000  0.5053420000000 1.0
C      1  0.4913390000000  0.5081570000000  0.4101620000000 1.0
C      1  0.5052550000000  0.5083310000000  0.5894370000000 1.0
C      1  0.5053090000000  0.4914350000000  0.4110580000000 1.0
C      1  0.4110220000000  0.4948320000000  0.4917990000000 1.0
C      1  0.5084960000000  0.5900040000000  0.4913670000000 1.0
C      1  0.5052470000000  0.4914620000000  0.5894290000000 1.0
C      1  0.4101420000000  0.5088110000000  0.5085210000000 1.0
C      1  0.5903190000000  0.5088880000000  0.4920420000000 1.0
C      1  0.5894040000000  0.4949030000000  0.5087120000000 1.0
C      1  0.5086850000000  0.4107440000000  0.5052800000000 1.0
C      1  0.4920140000000  0.4098300000000  0.4912960000000 1.0
C      1  0.4917730000000  0.5891270000000  0.5053460000000 1.0
C      1  0.5053150000000  0.5083750000000  0.4110490000000 1.0
C      1  0.4912640000000  0.5081330000000  0.5903450000000 1.0
C      1  0.4913350000000  0.4916550000000  0.4101710000000 1.0
C      1  0.4618420000000  0.4525020000000  0.4508200000000 1.0
C      1  0.4510920000000  0.4608900000000  0.4531610000000 1.0
C      1  0.4534540000000  0.4501940000000  0.4616130000000 1.0
C      1  0.4615860000000  0.5466950000000  0.5499840000000 1.0
C      1  0.5392620000000  0.5470120000000  0.4511210000000 1.0
C      1  0.5390770000000  0.4524840000000  0.5497710000000 1.0
C      1  0.4507930000000  0.5383060000000  0.5476750000000 1.0
C      1  0.5499570000000  0.5385600000000  0.4534820000000 1.0
C      1  0.5497430000000  0.4610700000000  0.5476910000000 1.0
C      1  0.4531330000000  0.5490580000000  0.5392890000000 1.0
C      1  0.5476480000000  0.5493520000000  0.4618720000000 1.0
C      1  0.5476640000000  0.4504040000000  0.5391050000000 1.0
C      1  0.5389910000000  0.4522990000000  0.4510710000000 1.0
C      1  0.5496470000000  0.4608170000000  0.4533320000000 1.0
C      1  0.5474350000000  0.4501100000000  0.4618400000000 1.0
C      1  0.5393290000000  0.5468410000000  0.5496730000000 1.0
C      1  0.4615970000000  0.5468900000000  0.4508440000000 1.0
C      1  0.4618110000000  0.4527140000000  0.5500620000000 1.0
C      1  0.5500360000000  0.5383340000000  0.5474610000000 1.0
C      1  0.4508190000000  0.5385550000000  0.4532870000000 1.0
C      1  0.4510420000000  0.4611580000000  0.5478740000000 1.0
C      1  0.5478460000000  0.5491020000000  0.5390170000000 1.0
C      1  0.4532610000000  0.5493340000000  0.4616210000000 1.0
C      1  0.4533040000000  0.4505020000000  0.5393550000000 1.0
C      1  0.5064560000000  0.5394160000000  0.5361440000000 1.0
C      1  0.5353590000000  0.5061410000000  0.5391770000000 1.0
C      1  0.5391700000000  0.5356290000000  0.5065050000000 1.0
C      1  0.5064790000000  0.4609740000000  0.4645450000000 1.0
C      1  0.4940090000000  0.4609920000000  0.5353940000000 1.0
C      1  0.4939920000000  0.5387260000000  0.4649570000000 1.0
C      1  0.5361170000000  0.4936890000000  0.4607590000000 1.0
C      1  0.4645170000000  0.4936700000000  0.5392010000000 1.0
C      1  0.4649230000000  0.5061540000000  0.4614450000000 1.0
C      1  0.5391550000000  0.4647850000000  0.4940350000000 1.0
C      1  0.4607380000000  0.4640370000000  0.5064870000000 1.0
C      1  0.4614130000000  0.5352260000000  0.4940220000000 1.0
C      1  0.4939980000000  0.5389800000000  0.5354880000000 1.0
C      1  0.4650280000000  0.5061410000000  0.5388900000000 1.0
C      1  0.4610440000000  0.5358030000000  0.5064840000000 1.0
C      1  0.4940080000000  0.4612860000000  0.4650570000000 1.0
C      1  0.5064760000000  0.4606010000000  0.5359950000000 1.0
C      1  0.5064530000000  0.5391050000000  0.4643710000000 1.0
C      1  0.4643520000000  0.4936910000000  0.4610790000000 1.0
C      1  0.5359730000000  0.4936750000000  0.5395790000000 1.0
C      1  0.5354600000000  0.5061480000000  0.4611950000000 1.0
C      1  0.4611660000000  0.4646830000000  0.4940290000000 1.0
C      1  0.5395530000000  0.4641760000000  0.5065010000000 1.0
C      1  0.5388570000000  0.5351160000000  0.4940350000000 1.0
C      1  0.5175920000000  0.4857170000000  0.5670890000000 1.0
C      1  0.5668810000000  0.5180140000000  0.4860780000000 1.0
C      1  0.4860590000000  0.5667810000000  0.5176420000000 1.0
C      1  0.5176140000000  0.5140870000000  0.4333950000000 1.0
C      1  0.4821340000000  0.5140970000000  0.5669080000000 1.0
C      1  0.4821060000000  0.4856990000000  0.4335840000000 1.0
C      1  0.5670650000000  0.4825570000000  0.5144570000000 1.0
C      1  0.4333690000000  0.4825350000000  0.4860880000000 1.0
C      1  0.4335540000000  0.5180430000000  0.5144770000000 1.0
C      1  0.4860520000000  0.4332660000000  0.4821620000000 1.0
C      1  0.5144310000000  0.4330850000000  0.5176210000000 1.0
C      1  0.5144490000000  0.5665910000000  0.4821330000000 1.0
C      1  0.4821250000000  0.4857020000000  0.5669060000000 1.0
C      1  0.4335470000000  0.5180330000000  0.4860570000000 1.0
C      1  0.5144290000000  0.5667670000000  0.5176360000000 1.0
C      1  0.4821170000000  0.5141200000000  0.4335750000000 1.0
C      1  0.5175900000000  0.5140610000000  0.5670960000000 1.0
C      1  0.5176060000000  0.4857170000000  0.4334070000000 1.0
C      1  0.4333790000000  0.4825420000000  0.5144570000000 1.0
C      1  0.5670710000000  0.4825580000000  0.4861140000000 1.0
C      1  0.5668790000000  0.5180230000000  0.5144730000000 1.0
C      1  0.5144470000000  0.4332670000000  0.4821540000000 1.0
C      1  0.4860870000000  0.4330800000000  0.5176190000000 1.0
C      1  0.4860290000000  0.5666030000000  0.4821450000000 1.0
C      1  0.5382870000000  0.4318090000000  0.4937350000000 1.0
C      1  0.4936530000000  0.5380090000000  0.4323130000000 1.0
C      1  0.4321720000000  0.4926720000000  0.5387020000000 1.0
C      1  0.5386730000000  0.5679750000000  0.5075050000000 1.0
C      1  0.4621380000000  0.5678660000000  0.4936780000000 1.0
C      1  0.4618020000000  0.4318770000000  0.5075560000000 1.0
C      1  0.4937050000000  0.4618620000000  0.5683660000000 1.0
C      1  0.5074770000000  0.4614720000000  0.4322010000000 1.0
C      1  0.5075300000000  0.5383470000000  0.5683000000000 1.0
C      1  0.4322840000000  0.5065000000000  0.4621670000000 1.0
C      1  0.5683370000000  0.5064400000000  0.5383130000000 1.0
C      1  0.5682730000000  0.4926150000000  0.4618260000000 1.0
C      1  0.4621770000000  0.4319180000000  0.4937310000000 1.0
C      1  0.5074910000000  0.5383670000000  0.4323040000000 1.0
C      1  0.5684010000000  0.4926250000000  0.5387090000000 1.0
C      1  0.4617790000000  0.5678720000000  0.5075160000000 1.0
C      1  0.5383040000000  0.5679560000000  0.4936770000000 1.0
C      1  0.5386830000000  0.4317470000000  0.5075490000000 1.0
C      1  0.5075200000000  0.4614650000000  0.5684250000000 1.0
C      1  0.4936490000000  0.4618440000000  0.4322180000000 1.0
C      1  0.4937050000000  0.5379720000000  0.5682560000000 1.0
C      1  0.5682290000000  0.5064410000000  0.4622030000000 1.0
C      1  0.4321890000000  0.5065000000000  0.5383320000000 1.0
C      1  0.4322790000000  0.4926620000000  0.4618080000000 1.0
C      1  0.4719190000000  0.4319190000000  0.4834450000000 1.0
C      1  0.4833710000000  0.4715580000000  0.4322960000000 1.0
C      1  0.4328640000000  0.4826950000000  0.4719200000000 1.0
C      1  0.4718920000000  0.5672860000000  0.5174830000000 1.0
C      1  0.5285900000000  0.5678770000000  0.4833980000000 1.0
C      1  0.5285890000000  0.4325190000000  0.5174870000000 1.0
C      1  0.4834180000000  0.5282300000000  0.5682560000000 1.0
C      1  0.5174560000000  0.5282540000000  0.4328900000000 1.0
C      1  0.5174580000000  0.4715600000000  0.5676540000000 1.0
C      1  0.4322680000000  0.5167790000000  0.5286180000000 1.0
C      1  0.5682290000000  0.5167280000000  0.4719450000000 1.0
C      1  0.5676290000000  0.4826890000000  0.5286140000000 1.0
C      1  0.5285770000000  0.4318970000000  0.4834600000000 1.0
C      1  0.5174430000000  0.4715500000000  0.4329060000000 1.0
C      1  0.5676240000000  0.4826780000000  0.4719560000000 1.0
C      1  0.5285960000000  0.5672690000000  0.5174710000000 1.0
C      1  0.4718860000000  0.5678800000000  0.4833910000000 1.0
C      1  0.4719290000000  0.4325260000000  0.5174960000000 1.0
C      1  0.5174690000000  0.5282190000000  0.5676510000000 1.0
C      1  0.4833650000000  0.5282630000000  0.4322990000000 1.0
C      1  0.4834300000000  0.4715720000000  0.5682770000000 1.0
C      1  0.5682500000000  0.5167160000000  0.5286030000000 1.0
C      1  0.4322710000000  0.5167870000000  0.4719140000000 1.0
C      1  0.4328770000000  0.4827060000000  0.5286240000000 1.0
C      1  0.5432990000000  0.5073940000000  0.4874500000000 1.0
C      1  0.4874730000000  0.5430120000000  0.5078180000000 1.0
C      1  0.5078310000000  0.4871530000000  0.5432690000000 1.0
C      1  0.5432440000000  0.4923150000000  0.5130210000000 1.0
C      1  0.4571390000000  0.4923580000000  0.4875050000000 1.0
C      1  0.4571370000000  0.5074210000000  0.5129660000000 1.0
C      1  0.4874250000000  0.4568500000000  0.4927800000000 1.0
C      1  0.5129970000000  0.4569040000000  0.5078590000000 1.0
C      1  0.5129350000000  0.5430080000000  0.4927550000000 1.0
C      1  0.5077930000000  0.5126720000000  0.4571660000000 1.0
C      1  0.4927530000000  0.5127250000000  0.5433260000000 1.0
C      1  0.4927290000000  0.4872100000000  0.4571660000000 1.0
C      1  0.4571130000000  0.5074020000000  0.4874950000000 1.0
C      1  0.5129200000000  0.5429810000000  0.5078330000000 1.0
C      1  0.4927330000000  0.4871420000000  0.5433020000000 1.0
C      1  0.4571650000000  0.4923430000000  0.5129520000000 1.0
C      1  0.5432720000000  0.4923340000000  0.4874600000000 1.0
C      1  0.5432760000000  0.5074130000000  0.5130330000000 1.0
C      1  0.5130080000000  0.4568710000000  0.4927620000000 1.0
C      1  0.4874350000000  0.4568780000000  0.5078400000000 1.0
C      1  0.4874630000000  0.5430370000000  0.4927750000000 1.0
C      1  0.4927490000000  0.5126820000000  0.4571410000000 1.0
C      1  0.5078120000000  0.5127150000000  0.5432970000000 1.0
C      1  0.5078070000000  0.4872240000000  0.4571930000000 1.0
C      1  0.5450590000000  0.5494570000000  0.4756460000000 1.0
C      1  0.4754740000000  0.5446730000000  0.5498960000000 1.0
C      1  0.5497800000000  0.4748700000000  0.5454470000000 1.0
C      1  0.5454200000000  0.4503690000000  0.5253050000000 1.0
C      1  0.4554740000000  0.4502780000000  0.4755010000000 1.0
C      1  0.4551560000000  0.5494180000000  0.5254660000000 1.0
C      1  0.4756180000000  0.4550880000000  0.4507160000000 1.0
C      1  0.5252770000000  0.4547300000000  0.5498040000000 1.0
C      1  0.5254390000000  0.5449910000000  0.4507580000000 1.0
C      1  0.5498680000000  0.5246720000000  0.4555030000000 1.0
C      1  0.4506870000000  0.5245320000000  0.5450880000000 1.0
C      1  0.4507340000000  0.4747120000000  0.4551860000000 1.0
C      1  0.4554570000000  0.5495010000000  0.4754680000000 1.0
C      1  0.5254710000000  0.5450100000000  0.5498390000000 1.0
C      1  0.4507820000000  0.4749120000000  0.5454050000000 1.0
C      1  0.4551390000000  0.4503390000000  0.5254980000000 1.0
C      1  0.5450600000000  0.4502930000000  0.4756680000000 1.0
C      1  0.5453760000000  0.5493630000000  0.5252640000000 1.0
C      1  0.5252370000000  0.4547690000000  0.4508110000000 1.0
C      1  0.4756390000000  0.4550880000000  0.5498830000000 1.0
C      1  0.4754430000000  0.5446900000000  0.4506800000000 1.0
C      1  0.4506500000000  0.5247090000000  0.4554850000000 1.0
C      1  0.5498520000000  0.5245060000000  0.5450850000000 1.0
C      1  0.5498120000000  0.4746750000000  0.4551650000000 1.0
C      1  0.5150330000000  0.4926710000000  0.4214590000000 1.0
C      1  0.4215880000000  0.5177610000000  0.4931670000000 1.0
C      1  0.4930260000000  0.4211300000000  0.5150330000000 1.0
C      1  0.5150020000000  0.5071210000000  0.5790450000000 1.0
C      1  0.4823870000000  0.5070090000000  0.4216180000000 1.0
C      1  0.4823310000000  0.4928060000000  0.5788670000000 1.0
C      1  0.4214320000000  0.4851130000000  0.5075030000000 1.0
C      1  0.5790200000000  0.4851480000000  0.4930520000000 1.0
C      1  0.5788400000000  0.5178180000000  0.5073700000000 1.0
C      1  0.4931400000000  0.5785610000000  0.4824170000000 1.0
C      1  0.5074750000000  0.5787150000000  0.5150640000000 1.0
C      1  0.5073440000000  0.4213060000000  0.4823630000000 1.0
C      1  0.4823900000000  0.4928090000000  0.4216230000000 1.0
C      1  0.5788420000000  0.5178200000000  0.4931770000000 1.0
C      1  0.5074850000000  0.4211370000000  0.5150230000000 1.0
C      1  0.4823300000000  0.5069990000000  0.5788690000000 1.0
C      1  0.5150440000000  0.5071320000000  0.4214510000000 1.0
C      1  0.5149920000000  0.4926620000000  0.5790370000000 1.0
C      1  0.5790120000000  0.4851580000000  0.5075120000000 1.0
C      1  0.4214240000000  0.4851040000000  0.4930420000000 1.0
C      1  0.4215940000000  0.5177570000000  0.5073670000000 1.0
C      1  0.5073400000000  0.5785530000000  0.4824210000000 1.0
C      1  0.4930140000000  0.5787250000000  0.5150740000000 1.0
C      1  0.4931510000000  0.4213050000000  0.4823610000000 1.0
C      1  0.4632640000000  0.5198390000000  0.4616390000000 1.0
C      1  0.4612300000000  0.4628240000000  0.5202490000000 1.0
C      1  0.5202180000000  0.4612440000000  0.4632060000000 1.0
C      1  0.4631780000000  0.4799310000000  0.5389330000000 1.0
C      1  0.5373270000000  0.4799270000000  0.4612530000000 1.0
C      1  0.5370980000000  0.5198450000000  0.5389530000000 1.0
C      1  0.4616080000000  0.5368850000000  0.4803360000000 1.0
C      1  0.5389010000000  0.5369690000000  0.5202430000000 1.0
C      1  0.5389300000000  0.4630470000000  0.4803310000000 1.0
C      1  0.5202180000000  0.5389230000000  0.5373540000000 1.0
C      1  0.4803070000000  0.5385340000000  0.4632950000000 1.0
C      1  0.4803050000000  0.4612180000000  0.5371300000000 1.0
C      1  0.5371360000000  0.5198500000000  0.4614890000000 1.0
C      1  0.5391360000000  0.4628770000000  0.5202640000000 1.0
C      1  0.4803230000000  0.4614120000000  0.4633360000000 1.0
C      1  0.5372720000000  0.4799120000000  0.5391610000000 1.0
C      1  0.4631180000000  0.4799490000000  0.4614440000000 1.0
C      1  0.4633070000000  0.5198250000000  0.5387640000000 1.0
C      1  0.5387320000000  0.5368380000000  0.4803500000000 1.0
C      1  0.4614100000000  0.5370340000000  0.5202270000000 1.0
C      1  0.4614620000000  0.4630090000000  0.4803260000000 1.0
C      1  0.4802960000000  0.5386860000000  0.5371640000000 1.0
C      1  0.5201970000000  0.5387370000000  0.4631410000000 1.0
C      1  0.5202390000000  0.4610170000000  0.5372960000000 1.0
C      1  0.4598720000000  0.5611690000000  0.5196440000000 1.0
C      1  0.5194880000000  0.4594970000000  0.5615400000000 1.0
C      1  0.5614880000000  0.5185490000000  0.4601140000000 1.0
C      1  0.4600880000000  0.4386580000000  0.4816220000000 1.0
C      1  0.5406520000000  0.4386330000000  0.5195180000000 1.0
C      1  0.5404700000000  0.5611810000000  0.4815920000000 1.0
C      1  0.5196180000000  0.5402740000000  0.4390070000000 1.0
C      1  0.4815970000000  0.5400610000000  0.5615150000000 1.0
C      1  0.4815640000000  0.4596780000000  0.4389930000000 1.0
C      1  0.5615160000000  0.4806560000000  0.5406780000000 1.0
C      1  0.4389830000000  0.4805350000000  0.4599010000000 1.0
C      1  0.4389630000000  0.5185860000000  0.5404980000000 1.0
C      1  0.5406540000000  0.5611500000000  0.5195310000000 1.0
C      1  0.4816780000000  0.4597070000000  0.5615380000000 1.0
C      1  0.4389700000000  0.5186670000000  0.4600690000000 1.0
C      1  0.5404410000000  0.4386380000000  0.4817090000000 1.0
C      1  0.4599040000000  0.4386360000000  0.5196320000000 1.0
C      1  0.4600420000000  0.5611800000000  0.4815120000000 1.0
C      1  0.4814880000000  0.5401070000000  0.4390000000000 1.0
C      1  0.5196070000000  0.5402450000000  0.5615420000000 1.0
C      1  0.5195030000000  0.4594910000000  0.4390250000000 1.0
C      1  0.4389960000000  0.4806460000000  0.5406830000000 1.0
C      1  0.5615150000000  0.4805390000000  0.4599300000000 1.0
C      1  0.5615070000000  0.5184650000000  0.5404670000000 1.0
C      1  0.4930350000000  0.5545390000000  0.5143980000000 1.0
C      1  0.5143540000000  0.4926990000000  0.5548320000000 1.0
C      1  0.5546990000000  0.5141760000000  0.4930100000000 1.0
C      1  0.4929840000000  0.4454480000000  0.4859990000000 1.0
C      1  0.5074500000000  0.4453430000000  0.5143820000000 1.0
C      1  0.5074770000000  0.5544150000000  0.4859540000000 1.0
C      1  0.5143710000000  0.5071100000000  0.4456370000000 1.0
C      1  0.4859710000000  0.5071650000000  0.5547260000000 1.0
C      1  0.4859260000000  0.4926700000000  0.4457610000000 1.0
C      1  0.5548070000000  0.4857940000000  0.5074750000000 1.0
C      1  0.4456100000000  0.4857780000000  0.4930650000000 1.0
C      1  0.4457320000000  0.5142230000000  0.5075060000000 1.0
C      1  0.5074250000000  0.5545230000000  0.5144060000000 1.0
C      1  0.4859600000000  0.4926470000000  0.5547150000000 1.0
C      1  0.4457180000000  0.5142110000000  0.4930080000000 1.0
C      1  0.5075020000000  0.4454580000000  0.4859890000000 1.0
C      1  0.4930480000000  0.4453310000000  0.5143710000000 1.0
C      1  0.4929790000000  0.5544310000000  0.4859660000000 1.0
C      1  0.4859390000000  0.5071680000000  0.4457470000000 1.0
C      1  0.5143430000000  0.5071010000000  0.5548440000000 1.0
C      1  0.5143780000000  0.4927200000000  0.4456510000000 1.0
C      1  0.4456240000000  0.4857710000000  0.5074550000000 1.0
C      1  0.5548190000000  0.4858040000000  0.4930740000000 1.0
C      1  0.5546880000000  0.5141870000000  0.5075280000000 1.0
C      1  0.5079800000000  0.5074310000000  0.4714630000000 1.0
C      1  0.4714670000000  0.5075750000000  0.5076860000000 1.0
C      1  0.5076560000000  0.4711640000000  0.5080100000000 1.0
C      1  0.5079820000000  0.4924950000000  0.5290100000000 1.0
C      1  0.4925770000000  0.4924910000000  0.4714970000000 1.0
C      1  0.4925680000000  0.5074310000000  0.5290110000000 1.0
C      1  0.4714360000000  0.4921720000000  0.4927450000000 1.0
C      1  0.5289850000000  0.4921620000000  0.5076790000000 1.0
C      1  0.5289840000000  0.5075770000000  0.4927440000000 1.0
C      1  0.5076530000000  0.5286790000000  0.4926030000000 1.0
C      1  0.4927110000000  0.5287140000000  0.5080060000000 1.0
C      1  0.4927200000000  0.4711640000000  0.4925960000000 1.0
C      1  0.4925660000000  0.5074410000000  0.4714800000000 1.0
C      1  0.5289740000000  0.5075660000000  0.5076960000000 1.0
C      1  0.4927290000000  0.4711520000000  0.5080200000000 1.0
C      1  0.4925790000000  0.4924790000000  0.5290010000000 1.0
C      1  0.5079670000000  0.4925060000000  0.4714800000000 1.0
C      1  0.5079930000000  0.5074210000000  0.5290230000000 1.0
C      1  0.5289980000000  0.4921520000000  0.4927530000000 1.0
C      1  0.4714530000000  0.4921840000000  0.5076710000000 1.0
C      1  0.4714520000000  0.5075860000000  0.4927360000000 1.0
C      1  0.4927020000000  0.5286980000000  0.4925910000000 1.0
C      1  0.5076370000000  0.5286940000000  0.5079930000000 1.0
C      1  0.5076730000000  0.4711730000000  0.4926060000000 1.0
C      1  0.5307300000000  0.4695370000000  0.4696910000000 1.0
C      1  0.4696660000000  0.4694190000000  0.5306400000000 1.0
C      1  0.4697540000000  0.5304490000000  0.5306160000000 1.0
C      1  0.5305850000000  0.5303920000000  0.4697250000000 1.0
C      1  0.4697860000000  0.5303580000000  0.4698180000000 1.0
C      1  0.5307480000000  0.4694040000000  0.5307720000000 1.0
C      1  0.5306080000000  0.5304850000000  0.5307560000000 1.0
C      1  0.4697000000000  0.4695580000000  0.4697860000000 1.0
END
