TITL C-1887025-1554-24 3.77249735476506e-06 1000000 -2571.91844450164 0 0 360 (Td) n - 1
REM
REM in /nfs/bkarasulu/CARBON/AIRSS/Generating-Clusters/GAP-ML-2020/Higher-Symm/Selected-Sizes/TryA-Only_Ih-Symm/Larger-Clusters
REM
REM
REM
REM
REM
REM ./C.cell (2cf5181f0f1d4d5b12b972d32ad12063)
REM
REM compiler GCC version 9.2.1 20190827 (Red Hat 9.2.1-1)
REM options -cpp -mtune=generic -march=x86-64 -g -O0 -fpre-include=/usr/include/finclude/math-vector-fortran.h
REM seed 659987801 -1446833619 -454868571 -1669376854 -583059926 -1419077278 -542375293 1878286863 -58413315 50458790 1063156883 -231149919 1497585012 -1500816630 972748355 -1276220653 -1229926632 -1102033939 1485541188 497955536 178570180 987515899 -666609096 -909678804 -1855853416 -1478632740 -1904321300 1495525147 -1685579051 70264855 1613770376 96376711 842255855
REM
CELL 1.54180  100.00000  100.00000  100.00000   90.00000   90.00000   90.00000
LATT -1
SFAC C  
C      1  0.4892160000000  0.5717300000000  0.5488150000000 1.0
C      1  0.5488150000000  0.4892160000000  0.5717300000000 1.0
C      1  0.5717300000000  0.5488150000000  0.4892160000000 1.0
C      1  0.4892160000000  0.4282700000000  0.4511850000000 1.0
C      1  0.5107840000000  0.4282700000000  0.5488150000000 1.0
C      1  0.5107840000000  0.5717300000000  0.4511850000000 1.0
C      1  0.5488150000000  0.5107840000000  0.4282700000000 1.0
C      1  0.4511850000000  0.5107840000000  0.5717300000000 1.0
C      1  0.4511850000000  0.4892160000000  0.4282700000000 1.0
C      1  0.5717300000000  0.4511850000000  0.5107840000000 1.0
C      1  0.4282700000000  0.4511850000000  0.4892160000000 1.0
C      1  0.4282700000000  0.5488150000000  0.5107840000000 1.0
C      1  0.4892160000000  0.5488150000000  0.5717300000000 1.0
C      1  0.5488150000000  0.5717300000000  0.4892160000000 1.0
C      1  0.5717300000000  0.4892160000000  0.5488150000000 1.0
C      1  0.4892160000000  0.4511850000000  0.4282700000000 1.0
C      1  0.5107840000000  0.5488150000000  0.4282700000000 1.0
C      1  0.5107840000000  0.4511850000000  0.5717300000000 1.0
C      1  0.5488150000000  0.4282700000000  0.5107840000000 1.0
C      1  0.4511850000000  0.5717300000000  0.5107840000000 1.0
C      1  0.4511850000000  0.4282700000000  0.4892160000000 1.0
C      1  0.5717300000000  0.5107840000000  0.4511850000000 1.0
C      1  0.4282700000000  0.4892160000000  0.4511850000000 1.0
C      1  0.4282700000000  0.5107840000000  0.5488150000000 1.0
C      1  0.5214760000000  0.5317000000000  0.5114020000000 1.0
C      1  0.5114020000000  0.5214760000000  0.5317000000000 1.0
C      1  0.5317000000000  0.5114020000000  0.5214760000000 1.0
C      1  0.5214760000000  0.4683000000000  0.4885980000000 1.0
C      1  0.4785240000000  0.4683000000000  0.5114020000000 1.0
C      1  0.4785240000000  0.5317000000000  0.4885980000000 1.0
C      1  0.5114020000000  0.4785240000000  0.4683000000000 1.0
C      1  0.4885980000000  0.4785240000000  0.5317000000000 1.0
C      1  0.4885980000000  0.5214760000000  0.4683000000000 1.0
C      1  0.5317000000000  0.4885980000000  0.4785240000000 1.0
C      1  0.4683000000000  0.4885980000000  0.5214760000000 1.0
C      1  0.4683000000000  0.5114020000000  0.4785240000000 1.0
C      1  0.5214760000000  0.5114020000000  0.5317000000000 1.0
C      1  0.5114020000000  0.5317000000000  0.5214760000000 1.0
C      1  0.5317000000000  0.5214760000000  0.5114020000000 1.0
C      1  0.5214760000000  0.4885980000000  0.4683000000000 1.0
C      1  0.4785240000000  0.5114020000000  0.4683000000000 1.0
C      1  0.4785240000000  0.4885980000000  0.5317000000000 1.0
C      1  0.5114020000000  0.4683000000000  0.4785240000000 1.0
C      1  0.4885980000000  0.5317000000000  0.4785240000000 1.0
C      1  0.4885980000000  0.4683000000000  0.5214760000000 1.0
C      1  0.5317000000000  0.4785240000000  0.4885980000000 1.0
C      1  0.4683000000000  0.5214760000000  0.4885980000000 1.0
C      1  0.4683000000000  0.4785240000000  0.5114020000000 1.0
C      1  0.5736320000000  0.4893410000000  0.4790710000000 1.0
C      1  0.4790710000000  0.5736320000000  0.4893410000000 1.0
C      1  0.4893410000000  0.4790710000000  0.5736320000000 1.0
C      1  0.5736320000000  0.5106590000000  0.5209290000000 1.0
C      1  0.4263680000000  0.5106590000000  0.4790710000000 1.0
C      1  0.4263680000000  0.4893410000000  0.5209290000000 1.0
C      1  0.4790710000000  0.4263680000000  0.5106590000000 1.0
C      1  0.5209290000000  0.4263680000000  0.4893410000000 1.0
C      1  0.5209290000000  0.5736320000000  0.5106590000000 1.0
C      1  0.4893410000000  0.5209290000000  0.4263680000000 1.0
C      1  0.5106590000000  0.5209290000000  0.5736320000000 1.0
C      1  0.5106590000000  0.4790710000000  0.4263680000000 1.0
C      1  0.5736320000000  0.4790710000000  0.4893410000000 1.0
C      1  0.4790710000000  0.4893410000000  0.5736320000000 1.0
C      1  0.4893410000000  0.5736320000000  0.4790710000000 1.0
C      1  0.5736320000000  0.5209290000000  0.5106590000000 1.0
C      1  0.4263680000000  0.4790710000000  0.5106590000000 1.0
C      1  0.4263680000000  0.5209290000000  0.4893410000000 1.0
C      1  0.4790710000000  0.5106590000000  0.4263680000000 1.0
C      1  0.5209290000000  0.4893410000000  0.4263680000000 1.0
C      1  0.5209290000000  0.5106590000000  0.5736320000000 1.0
C      1  0.4893410000000  0.4263680000000  0.5209290000000 1.0
C      1  0.5106590000000  0.5736320000000  0.5209290000000 1.0
C      1  0.5106590000000  0.4263680000000  0.4790710000000 1.0
C      1  0.5243160000000  0.5684910000000  0.4855300000000 1.0
C      1  0.4855300000000  0.5243160000000  0.5684910000000 1.0
C      1  0.5684910000000  0.4855300000000  0.5243160000000 1.0
C      1  0.5243160000000  0.4315090000000  0.5144700000000 1.0
C      1  0.4756840000000  0.4315090000000  0.4855300000000 1.0
C      1  0.4756840000000  0.5684910000000  0.5144700000000 1.0
C      1  0.4855300000000  0.4756840000000  0.4315090000000 1.0
C      1  0.5144700000000  0.4756840000000  0.5684910000000 1.0
C      1  0.5144700000000  0.5243160000000  0.4315090000000 1.0
C      1  0.5684910000000  0.5144700000000  0.4756840000000 1.0
C      1  0.4315090000000  0.5144700000000  0.5243160000000 1.0
C      1  0.4315090000000  0.4855300000000  0.4756840000000 1.0
C      1  0.5243160000000  0.4855300000000  0.5684910000000 1.0
C      1  0.4855300000000  0.5684910000000  0.5243160000000 1.0
C      1  0.5684910000000  0.5243160000000  0.4855300000000 1.0
C      1  0.5243160000000  0.5144700000000  0.4315090000000 1.0
C      1  0.4756840000000  0.4855300000000  0.4315090000000 1.0
C      1  0.4756840000000  0.5144700000000  0.5684910000000 1.0
C      1  0.4855300000000  0.4315090000000  0.4756840000000 1.0
C      1  0.5144700000000  0.5684910000000  0.4756840000000 1.0
C      1  0.5144700000000  0.4315090000000  0.5243160000000 1.0
C      1  0.5684910000000  0.4756840000000  0.5144700000000 1.0
C      1  0.4315090000000  0.5243160000000  0.5144700000000 1.0
C      1  0.4315090000000  0.4756840000000  0.4855300000000 1.0
C      1  0.5309610000000  0.4791960000000  0.4297230000000 1.0
C      1  0.4297230000000  0.5309610000000  0.4791960000000 1.0
C      1  0.4791960000000  0.4297230000000  0.5309610000000 1.0
C      1  0.5309610000000  0.5208040000000  0.5702770000000 1.0
C      1  0.4690390000000  0.5208040000000  0.4297230000000 1.0
C      1  0.4690390000000  0.4791960000000  0.5702770000000 1.0
C      1  0.4297230000000  0.4690390000000  0.5208040000000 1.0
C      1  0.5702770000000  0.4690390000000  0.4791960000000 1.0
C      1  0.5702770000000  0.5309610000000  0.5208040000000 1.0
C      1  0.4791960000000  0.5702770000000  0.4690390000000 1.0
C      1  0.5208040000000  0.5702770000000  0.5309610000000 1.0
C      1  0.5208040000000  0.4297230000000  0.4690390000000 1.0
C      1  0.5309610000000  0.4297230000000  0.4791960000000 1.0
C      1  0.4297230000000  0.4791960000000  0.5309610000000 1.0
C      1  0.4791960000000  0.5309610000000  0.4297230000000 1.0
C      1  0.5309610000000  0.5702770000000  0.5208040000000 1.0
C      1  0.4690390000000  0.4297230000000  0.5208040000000 1.0
C      1  0.4690390000000  0.5702770000000  0.4791960000000 1.0
C      1  0.4297230000000  0.5208040000000  0.4690390000000 1.0
C      1  0.5702770000000  0.4791960000000  0.4690390000000 1.0
C      1  0.5702770000000  0.5208040000000  0.5309610000000 1.0
C      1  0.4791960000000  0.4690390000000  0.5702770000000 1.0
C      1  0.5208040000000  0.5309610000000  0.5702770000000 1.0
C      1  0.5208040000000  0.4690390000000  0.4297230000000 1.0
C      1  0.5358600000000  0.5459590000000  0.4996220000000 1.0
C      1  0.4996220000000  0.5358600000000  0.5459590000000 1.0
C      1  0.5459590000000  0.4996220000000  0.5358600000000 1.0
C      1  0.5358600000000  0.4540410000000  0.5003780000000 1.0
C      1  0.4641400000000  0.4540410000000  0.4996220000000 1.0
C      1  0.4641400000000  0.5459590000000  0.5003780000000 1.0
C      1  0.4996220000000  0.4641400000000  0.4540410000000 1.0
C      1  0.5003780000000  0.4641400000000  0.5459590000000 1.0
C      1  0.5003780000000  0.5358600000000  0.4540410000000 1.0
C      1  0.5459590000000  0.5003780000000  0.4641400000000 1.0
C      1  0.4540410000000  0.5003780000000  0.5358600000000 1.0
C      1  0.4540410000000  0.4996220000000  0.4641400000000 1.0
C      1  0.5358600000000  0.4996220000000  0.5459590000000 1.0
C      1  0.4996220000000  0.5459590000000  0.5358600000000 1.0
C      1  0.5459590000000  0.5358600000000  0.4996220000000 1.0
C      1  0.5358600000000  0.5003780000000  0.4540410000000 1.0
C      1  0.4641400000000  0.4996220000000  0.4540410000000 1.0
C      1  0.4641400000000  0.5003780000000  0.5459590000000 1.0
C      1  0.4996220000000  0.4540410000000  0.4641400000000 1.0
C      1  0.5003780000000  0.5459590000000  0.4641400000000 1.0
C      1  0.5003780000000  0.4540410000000  0.5358600000000 1.0
C      1  0.5459590000000  0.4641400000000  0.5003780000000 1.0
C      1  0.4540410000000  0.5358600000000  0.5003780000000 1.0
C      1  0.4540410000000  0.4641400000000  0.4996220000000 1.0
C      1  0.4441250000000  0.5077860000000  0.4550380000000 1.0
C      1  0.4550380000000  0.4441250000000  0.5077860000000 1.0
C      1  0.5077860000000  0.4550380000000  0.4441250000000 1.0
C      1  0.4441250000000  0.4922140000000  0.5449620000000 1.0
C      1  0.5558750000000  0.4922140000000  0.4550380000000 1.0
C      1  0.5558750000000  0.5077860000000  0.5449620000000 1.0
C      1  0.4550380000000  0.5558750000000  0.4922140000000 1.0
C      1  0.5449620000000  0.5558750000000  0.5077860000000 1.0
C      1  0.5449620000000  0.4441250000000  0.4922140000000 1.0
C      1  0.5077860000000  0.5449620000000  0.5558750000000 1.0
C      1  0.4922140000000  0.5449620000000  0.4441250000000 1.0
C      1  0.4922140000000  0.4550380000000  0.5558750000000 1.0
C      1  0.4441250000000  0.4550380000000  0.5077860000000 1.0
C      1  0.4550380000000  0.5077860000000  0.4441250000000 1.0
C      1  0.5077860000000  0.4441250000000  0.4550380000000 1.0
C      1  0.4441250000000  0.5449620000000  0.4922140000000 1.0
C      1  0.5558750000000  0.4550380000000  0.4922140000000 1.0
C      1  0.5558750000000  0.5449620000000  0.5077860000000 1.0
C      1  0.4550380000000  0.4922140000000  0.5558750000000 1.0
C      1  0.5449620000000  0.5077860000000  0.5558750000000 1.0
C      1  0.5449620000000  0.4922140000000  0.4441250000000 1.0
C      1  0.5077860000000  0.5558750000000  0.5449620000000 1.0
C      1  0.4922140000000  0.4441250000000  0.5449620000000 1.0
C      1  0.4922140000000  0.5558750000000  0.4550380000000 1.0
C      1  0.5599520000000  0.5394070000000  0.4695180000000 1.0
C      1  0.4695180000000  0.5599520000000  0.5394070000000 1.0
C      1  0.5394070000000  0.4695180000000  0.5599520000000 1.0
C      1  0.5599520000000  0.4605930000000  0.5304820000000 1.0
C      1  0.4400480000000  0.4605930000000  0.4695180000000 1.0
C      1  0.4400480000000  0.5394070000000  0.5304820000000 1.0
C      1  0.4695180000000  0.4400480000000  0.4605930000000 1.0
C      1  0.5304820000000  0.4400480000000  0.5394070000000 1.0
C      1  0.5304820000000  0.5599520000000  0.4605930000000 1.0
C      1  0.5394070000000  0.5304820000000  0.4400480000000 1.0
C      1  0.4605930000000  0.5304820000000  0.5599520000000 1.0
C      1  0.4605930000000  0.4695180000000  0.4400480000000 1.0
C      1  0.5599520000000  0.4695180000000  0.5394070000000 1.0
C      1  0.4695180000000  0.5394070000000  0.5599520000000 1.0
C      1  0.5394070000000  0.5599520000000  0.4695180000000 1.0
C      1  0.5599520000000  0.5304820000000  0.4605930000000 1.0
C      1  0.4400480000000  0.4695180000000  0.4605930000000 1.0
C      1  0.4400480000000  0.5304820000000  0.5394070000000 1.0
C      1  0.4695180000000  0.4605930000000  0.4400480000000 1.0
C      1  0.5304820000000  0.5394070000000  0.4400480000000 1.0
C      1  0.5304820000000  0.4605930000000  0.5599520000000 1.0
C      1  0.5394070000000  0.4400480000000  0.5304820000000 1.0
C      1  0.4605930000000  0.5599520000000  0.5304820000000 1.0
C      1  0.4605930000000  0.4400480000000  0.4695180000000 1.0
C      1  0.5683380000000  0.4618680000000  0.5187360000000 1.0
C      1  0.5187360000000  0.5683380000000  0.4618680000000 1.0
C      1  0.4618680000000  0.5187360000000  0.5683380000000 1.0
C      1  0.5683380000000  0.5381320000000  0.4812640000000 1.0
C      1  0.4316620000000  0.5381320000000  0.5187360000000 1.0
C      1  0.4316620000000  0.4618680000000  0.4812640000000 1.0
C      1  0.5187360000000  0.4316620000000  0.5381320000000 1.0
C      1  0.4812640000000  0.4316620000000  0.4618680000000 1.0
C      1  0.4812640000000  0.5683380000000  0.5381320000000 1.0
C      1  0.4618680000000  0.4812640000000  0.4316620000000 1.0
C      1  0.5381320000000  0.4812640000000  0.5683380000000 1.0
C      1  0.5381320000000  0.5187360000000  0.4316620000000 1.0
C      1  0.5683380000000  0.5187360000000  0.4618680000000 1.0
C      1  0.5187360000000  0.4618680000000  0.5683380000000 1.0
C      1  0.4618680000000  0.5683380000000  0.5187360000000 1.0
C      1  0.5683380000000  0.4812640000000  0.5381320000000 1.0
C      1  0.4316620000000  0.5187360000000  0.5381320000000 1.0
C      1  0.4316620000000  0.4812640000000  0.4618680000000 1.0
C      1  0.5187360000000  0.5381320000000  0.4316620000000 1.0
C      1  0.4812640000000  0.4618680000000  0.4316620000000 1.0
C      1  0.4812640000000  0.5381320000000  0.5683380000000 1.0
C      1  0.4618680000000  0.4316620000000  0.4812640000000 1.0
C      1  0.5381320000000  0.5683380000000  0.4812640000000 1.0
C      1  0.5381320000000  0.4316620000000  0.5187360000000 1.0
C      1  0.5011670000000  0.5541060000000  0.4357980000000 1.0
C      1  0.4357980000000  0.5011670000000  0.5541060000000 1.0
C      1  0.5541060000000  0.4357980000000  0.5011670000000 1.0
C      1  0.5011670000000  0.4458940000000  0.5642020000000 1.0
C      1  0.4988330000000  0.4458940000000  0.4357980000000 1.0
C      1  0.4988330000000  0.5541060000000  0.5642020000000 1.0
C      1  0.4357980000000  0.4988330000000  0.4458940000000 1.0
C      1  0.5642020000000  0.4988330000000  0.5541060000000 1.0
C      1  0.5642020000000  0.5011670000000  0.4458940000000 1.0
C      1  0.5541060000000  0.5642020000000  0.4988330000000 1.0
C      1  0.4458940000000  0.5642020000000  0.5011670000000 1.0
C      1  0.4458940000000  0.4357980000000  0.4988330000000 1.0
C      1  0.5011670000000  0.4357980000000  0.5541060000000 1.0
C      1  0.4357980000000  0.5541060000000  0.5011670000000 1.0
C      1  0.5541060000000  0.5011670000000  0.4357980000000 1.0
C      1  0.5011670000000  0.5642020000000  0.4458940000000 1.0
C      1  0.4988330000000  0.4357980000000  0.4458940000000 1.0
C      1  0.4988330000000  0.5642020000000  0.5541060000000 1.0
C      1  0.4357980000000  0.4458940000000  0.4988330000000 1.0
C      1  0.5642020000000  0.5541060000000  0.4988330000000 1.0
C      1  0.5642020000000  0.4458940000000  0.5011670000000 1.0
C      1  0.5541060000000  0.4988330000000  0.5642020000000 1.0
C      1  0.4458940000000  0.5011670000000  0.5642020000000 1.0
C      1  0.4458940000000  0.4988330000000  0.4357980000000 1.0
C      1  0.5407580000000  0.5604170000000  0.5207450000000 1.0
C      1  0.5207450000000  0.5407580000000  0.5604170000000 1.0
C      1  0.5604170000000  0.5207450000000  0.5407580000000 1.0
C      1  0.5407580000000  0.4395830000000  0.4792550000000 1.0
C      1  0.4592420000000  0.4395830000000  0.5207450000000 1.0
C      1  0.4592420000000  0.5604170000000  0.4792550000000 1.0
C      1  0.5207450000000  0.4592420000000  0.4395830000000 1.0
C      1  0.4792550000000  0.4592420000000  0.5604170000000 1.0
C      1  0.4792550000000  0.5407580000000  0.4395830000000 1.0
C      1  0.5604170000000  0.4792550000000  0.4592420000000 1.0
C      1  0.4395830000000  0.4792550000000  0.5407580000000 1.0
C      1  0.4395830000000  0.5207450000000  0.4592420000000 1.0
C      1  0.5407580000000  0.5207450000000  0.5604170000000 1.0
C      1  0.5207450000000  0.5604170000000  0.5407580000000 1.0
C      1  0.5604170000000  0.5407580000000  0.5207450000000 1.0
C      1  0.5407580000000  0.4792550000000  0.4395830000000 1.0
C      1  0.4592420000000  0.5207450000000  0.4395830000000 1.0
C      1  0.4592420000000  0.4792550000000  0.5604170000000 1.0
C      1  0.5207450000000  0.4395830000000  0.4592420000000 1.0
C      1  0.4792550000000  0.5604170000000  0.4592420000000 1.0
C      1  0.4792550000000  0.4395830000000  0.5407580000000 1.0
C      1  0.5604170000000  0.4592420000000  0.4792550000000 1.0
C      1  0.4395830000000  0.5407580000000  0.4792550000000 1.0
C      1  0.4395830000000  0.4592420000000  0.5207450000000 1.0
C      1  0.5187140000000  0.5670570000000  0.4986750000000 1.0
C      1  0.4986750000000  0.5187140000000  0.5670570000000 1.0
C      1  0.5670570000000  0.4986750000000  0.5187140000000 1.0
C      1  0.5187140000000  0.4329430000000  0.5013250000000 1.0
C      1  0.4812860000000  0.4329430000000  0.4986750000000 1.0
C      1  0.4812860000000  0.5670570000000  0.5013250000000 1.0
C      1  0.4986750000000  0.4812860000000  0.4329430000000 1.0
C      1  0.5013250000000  0.4812860000000  0.5670570000000 1.0
C      1  0.5013250000000  0.5187140000000  0.4329430000000 1.0
C      1  0.5670570000000  0.5013250000000  0.4812860000000 1.0
C      1  0.4329430000000  0.5013250000000  0.5187140000000 1.0
C      1  0.4329430000000  0.4986750000000  0.4812860000000 1.0
C      1  0.5187140000000  0.4986750000000  0.5670570000000 1.0
C      1  0.4986750000000  0.5670570000000  0.5187140000000 1.0
C      1  0.5670570000000  0.5187140000000  0.4986750000000 1.0
C      1  0.5187140000000  0.5013250000000  0.4329430000000 1.0
C      1  0.4812860000000  0.4986750000000  0.4329430000000 1.0
C      1  0.4812860000000  0.5013250000000  0.5670570000000 1.0
C      1  0.4986750000000  0.4329430000000  0.4812860000000 1.0
C      1  0.5013250000000  0.5670570000000  0.4812860000000 1.0
C      1  0.5013250000000  0.4329430000000  0.5187140000000 1.0
C      1  0.5670570000000  0.4812860000000  0.5013250000000 1.0
C      1  0.4329430000000  0.5187140000000  0.5013250000000 1.0
C      1  0.4329430000000  0.4812860000000  0.4986750000000 1.0
C      1  0.4465510000000  0.5000090000000  0.4885090000000 1.0
C      1  0.4885090000000  0.4465510000000  0.5000090000000 1.0
C      1  0.5000090000000  0.4885090000000  0.4465510000000 1.0
C      1  0.4465510000000  0.4999910000000  0.5114910000000 1.0
C      1  0.5534490000000  0.4999910000000  0.4885090000000 1.0
C      1  0.5534490000000  0.5000090000000  0.5114910000000 1.0
C      1  0.4885090000000  0.5534490000000  0.4999910000000 1.0
C      1  0.5114910000000  0.5534490000000  0.5000090000000 1.0
C      1  0.5114910000000  0.4465510000000  0.4999910000000 1.0
C      1  0.5000090000000  0.5114910000000  0.5534490000000 1.0
C      1  0.4999910000000  0.5114910000000  0.4465510000000 1.0
C      1  0.4999910000000  0.4885090000000  0.5534490000000 1.0
C      1  0.4465510000000  0.4885090000000  0.5000090000000 1.0
C      1  0.4885090000000  0.5000090000000  0.4465510000000 1.0
C      1  0.5000090000000  0.4465510000000  0.4885090000000 1.0
C      1  0.4465510000000  0.5114910000000  0.4999910000000 1.0
C      1  0.5534490000000  0.4885090000000  0.4999910000000 1.0
C      1  0.5534490000000  0.5114910000000  0.5000090000000 1.0
C      1  0.4885090000000  0.4999910000000  0.5534490000000 1.0
C      1  0.5114910000000  0.5000090000000  0.5534490000000 1.0
C      1  0.5114910000000  0.4999910000000  0.4465510000000 1.0
C      1  0.5000090000000  0.5534490000000  0.5114910000000 1.0
C      1  0.4999910000000  0.4465510000000  0.5114910000000 1.0
C      1  0.4999910000000  0.5534490000000  0.4885090000000 1.0
C      1  0.5224100000000  0.4570350000000  0.4976700000000 1.0
C      1  0.4976700000000  0.5224100000000  0.4570350000000 1.0
C      1  0.4570350000000  0.4976700000000  0.5224100000000 1.0
C      1  0.5224100000000  0.5429650000000  0.5023300000000 1.0
C      1  0.4775900000000  0.5429650000000  0.4976700000000 1.0
C      1  0.4775900000000  0.4570350000000  0.5023300000000 1.0
C      1  0.4976700000000  0.4775900000000  0.5429650000000 1.0
C      1  0.5023300000000  0.4775900000000  0.4570350000000 1.0
C      1  0.5023300000000  0.5224100000000  0.5429650000000 1.0
C      1  0.4570350000000  0.5023300000000  0.4775900000000 1.0
C      1  0.5429650000000  0.5023300000000  0.5224100000000 1.0
C      1  0.5429650000000  0.4976700000000  0.4775900000000 1.0
C      1  0.5224100000000  0.4976700000000  0.4570350000000 1.0
C      1  0.4976700000000  0.4570350000000  0.5224100000000 1.0
C      1  0.4570350000000  0.5224100000000  0.4976700000000 1.0
C      1  0.5224100000000  0.5023300000000  0.5429650000000 1.0
C      1  0.4775900000000  0.4976700000000  0.5429650000000 1.0
C      1  0.4775900000000  0.5023300000000  0.4570350000000 1.0
C      1  0.4976700000000  0.5429650000000  0.4775900000000 1.0
C      1  0.5023300000000  0.4570350000000  0.4775900000000 1.0
C      1  0.5023300000000  0.5429650000000  0.5224100000000 1.0
C      1  0.4570350000000  0.4775900000000  0.5023300000000 1.0
C      1  0.5429650000000  0.5224100000000  0.5023300000000 1.0
C      1  0.5429650000000  0.4775900000000  0.4976700000000 1.0
C      1  0.5519100000000  0.4679980000000  0.4580190000000 1.0
C      1  0.4580190000000  0.5519100000000  0.4679980000000 1.0
C      1  0.4679980000000  0.4580190000000  0.5519100000000 1.0
C      1  0.5519100000000  0.5320020000000  0.5419810000000 1.0
C      1  0.4480900000000  0.5320020000000  0.4580190000000 1.0
C      1  0.4480900000000  0.4679980000000  0.5419810000000 1.0
C      1  0.4580190000000  0.4480900000000  0.5320020000000 1.0
C      1  0.5419810000000  0.4480900000000  0.4679980000000 1.0
C      1  0.5419810000000  0.5519100000000  0.5320020000000 1.0
C      1  0.4679980000000  0.5419810000000  0.4480900000000 1.0
C      1  0.5320020000000  0.5419810000000  0.5519100000000 1.0
C      1  0.5320020000000  0.4580190000000  0.4480900000000 1.0
C      1  0.5519100000000  0.4580190000000  0.4679980000000 1.0
C      1  0.4580190000000  0.4679980000000  0.5519100000000 1.0
C      1  0.4679980000000  0.5519100000000  0.4580190000000 1.0
C      1  0.5519100000000  0.5419810000000  0.5320020000000 1.0
C      1  0.4480900000000  0.4580190000000  0.5320020000000 1.0
C      1  0.4480900000000  0.5419810000000  0.4679980000000 1.0
C      1  0.4580190000000  0.5320020000000  0.4480900000000 1.0
C      1  0.5419810000000  0.4679980000000  0.4480900000000 1.0
C      1  0.5419810000000  0.5320020000000  0.5519100000000 1.0
C      1  0.4679980000000  0.4480900000000  0.5419810000000 1.0
C      1  0.5320020000000  0.5519100000000  0.5419810000000 1.0
C      1  0.5320020000000  0.4480900000000  0.4580190000000 1.0
END
