TITL C-1887016-2763-28 -2.66537061848316e-07 1000000 -4127.73239077007 0 0 600 (Th) n - 1
REM
REM in /nfs/bkarasulu/CARBON/AIRSS/Generating-Clusters/GAP-ML-2020/Higher-Symm/Selected-Sizes/TryA-Only_Ih-Symm/Larger-Clusters
REM
REM
REM
REM
REM
REM ./C.cell (2cf5181f0f1d4d5b12b972d32ad12063)
REM
REM compiler GCC version 9.2.1 20190827 (Red Hat 9.2.1-1)
REM options -cpp -mtune=generic -march=x86-64 -g -O0 -fpre-include=/usr/include/finclude/math-vector-fortran.h
REM seed -391713019 -817270112 -227304306 2097910688 -1251933571 1349078556 -257178197 -1710162490 959938194 -100487885 -152877765 -1730662347 1165184208 -1206585314 -783706840 1781212911 1299918390 -1011981124 224578694 -1344438220 -1626441697 867812001 1430307278 897940563 -1450907860 -611646760 1549828768 -1911208940 -1904159872 1223657819 -1890174408 -2068865914 -1243698631
REM
CELL 1.54180  100.00000  100.00000  100.00000   90.00000   90.00000   90.00000
LATT -1
SFAC C  
C      1  0.5282530000000  0.5254150000000  0.5606280000000 1.0
C      1  0.5254150000000  0.5606280000000  0.5282530000000 1.0
C      1  0.5606280000000  0.5282530000000  0.5254150000000 1.0
C      1  0.4717470000000  0.4745850000000  0.5606280000000 1.0
C      1  0.5282520000000  0.4745860000000  0.4393710000000 1.0
C      1  0.4717470000000  0.5254150000000  0.4393720000000 1.0
C      1  0.4745850000000  0.4393720000000  0.5282530000000 1.0
C      1  0.5254160000000  0.4393720000000  0.4717470000000 1.0
C      1  0.4745850000000  0.5606280000000  0.4717470000000 1.0
C      1  0.4393720000000  0.4717470000000  0.5254140000000 1.0
C      1  0.5606280000000  0.4717470000000  0.4745850000000 1.0
C      1  0.4393710000000  0.5282530000000  0.4745860000000 1.0
C      1  0.5282530000000  0.5254150000000  0.4393710000000 1.0
C      1  0.5254150000000  0.5606280000000  0.4717470000000 1.0
C      1  0.5606280000000  0.5282520000000  0.4745850000000 1.0
C      1  0.4717470000000  0.4745850000000  0.4393720000000 1.0
C      1  0.5282530000000  0.4745850000000  0.5606280000000 1.0
C      1  0.4717470000000  0.5254150000000  0.5606280000000 1.0
C      1  0.4745860000000  0.4393710000000  0.4717480000000 1.0
C      1  0.5254150000000  0.4393720000000  0.5282530000000 1.0
C      1  0.4745860000000  0.5606290000000  0.5282520000000 1.0
C      1  0.4393720000000  0.4717460000000  0.4745840000000 1.0
C      1  0.5606290000000  0.4717470000000  0.5254150000000 1.0
C      1  0.4393720000000  0.5282530000000  0.5254150000000 1.0
C      1  0.5123320000000  0.5072680000000  0.4807100000000 1.0
C      1  0.5072680000000  0.4807100000000  0.5123320000000 1.0
C      1  0.4807100000000  0.5123320000000  0.5072680000000 1.0
C      1  0.4876680000000  0.4927330000000  0.4807100000000 1.0
C      1  0.5123320000000  0.4927320000000  0.5192900000000 1.0
C      1  0.4876680000000  0.5072680000000  0.5192900000000 1.0
C      1  0.4927320000000  0.5192900000000  0.5123320000000 1.0
C      1  0.5072680000000  0.5192900000000  0.4876680000000 1.0
C      1  0.4927320000000  0.4807100000000  0.4876680000000 1.0
C      1  0.5192900000000  0.4876680000000  0.5072680000000 1.0
C      1  0.4807100000000  0.4876680000000  0.4927320000000 1.0
C      1  0.5192900000000  0.5123320000000  0.4927330000000 1.0
C      1  0.5123320000000  0.5072680000000  0.5192900000000 1.0
C      1  0.5072680000000  0.4807100000000  0.4876680000000 1.0
C      1  0.4807100000000  0.5123320000000  0.4927320000000 1.0
C      1  0.4876680000000  0.4927320000000  0.5192900000000 1.0
C      1  0.5123320000000  0.4927320000000  0.4807100000000 1.0
C      1  0.4876680000000  0.5072680000000  0.4807100000000 1.0
C      1  0.4927320000000  0.5192900000000  0.4876680000000 1.0
C      1  0.5072680000000  0.5192900000000  0.5123320000000 1.0
C      1  0.4927320000000  0.4807100000000  0.5123320000000 1.0
C      1  0.5192900000000  0.4876680000000  0.4927320000000 1.0
C      1  0.4807100000000  0.4876680000000  0.5072670000000 1.0
C      1  0.5192900000000  0.5123320000000  0.5072680000000 1.0
C      1  0.4865020000000  0.5395420000000  0.5718380000000 1.0
C      1  0.5395420000000  0.5718390000000  0.4865020000000 1.0
C      1  0.5718390000000  0.4865020000000  0.5395410000000 1.0
C      1  0.5134980000000  0.4604590000000  0.5718390000000 1.0
C      1  0.4865010000000  0.4604580000000  0.4281620000000 1.0
C      1  0.5134980000000  0.5395410000000  0.4281600000000 1.0
C      1  0.4604590000000  0.4281600000000  0.4865030000000 1.0
C      1  0.5395420000000  0.4281610000000  0.5134990000000 1.0
C      1  0.4604580000000  0.5718390000000  0.5134980000000 1.0
C      1  0.4281610000000  0.5134970000000  0.5395410000000 1.0
C      1  0.5718380000000  0.5134980000000  0.4604580000000 1.0
C      1  0.4281610000000  0.4865020000000  0.4604580000000 1.0
C      1  0.4865020000000  0.5395420000000  0.4281610000000 1.0
C      1  0.5395420000000  0.5718390000000  0.5134980000000 1.0
C      1  0.5718380000000  0.4865020000000  0.4604580000000 1.0
C      1  0.5134970000000  0.4604580000000  0.4281610000000 1.0
C      1  0.4865020000000  0.4604590000000  0.5718390000000 1.0
C      1  0.5134980000000  0.5395420000000  0.5718390000000 1.0
C      1  0.4604580000000  0.4281610000000  0.5134980000000 1.0
C      1  0.5395420000000  0.4281610000000  0.4865020000000 1.0
C      1  0.4604580000000  0.5718390000000  0.4865020000000 1.0
C      1  0.4281600000000  0.5134980000000  0.4604590000000 1.0
C      1  0.5718390000000  0.5134980000000  0.5395420000000 1.0
C      1  0.4281610000000  0.4865020000000  0.5395410000000 1.0
C      1  0.4466180000000  0.5574610000000  0.4551970000000 1.0
C      1  0.5574570000000  0.4551940000000  0.4466180000000 1.0
C      1  0.4552010000000  0.4466160000000  0.5574650000000 1.0
C      1  0.5533870000000  0.4425350000000  0.4552050000000 1.0
C      1  0.4466160000000  0.4425380000000  0.5448000000000 1.0
C      1  0.5533830000000  0.5574650000000  0.5448000000000 1.0
C      1  0.4425340000000  0.5448000000000  0.4466180000000 1.0
C      1  0.5574630000000  0.5447990000000  0.5533840000000 1.0
C      1  0.4425370000000  0.4551970000000  0.5533820000000 1.0
C      1  0.5448030000000  0.5533820000000  0.5574620000000 1.0
C      1  0.4552010000000  0.5533850000000  0.4425370000000 1.0
C      1  0.5448010000000  0.4466190000000  0.4425320000000 1.0
C      1  0.4466190000000  0.5574640000000  0.5448030000000 1.0
C      1  0.5574650000000  0.4552000000000  0.5533830000000 1.0
C      1  0.4551920000000  0.4466190000000  0.4425440000000 1.0
C      1  0.5533830000000  0.4425380000000  0.5448030000000 1.0
C      1  0.4466200000000  0.4425300000000  0.4551990000000 1.0
C      1  0.5533850000000  0.5574620000000  0.4552010000000 1.0
C      1  0.4425340000000  0.5447970000000  0.5533850000000 1.0
C      1  0.5574620000000  0.5448040000000  0.4466180000000 1.0
C      1  0.4425350000000  0.4552070000000  0.4466120000000 1.0
C      1  0.5447990000000  0.5533830000000  0.4425330000000 1.0
C      1  0.4551980000000  0.5533840000000  0.5574600000000 1.0
C      1  0.5447990000000  0.4466160000000  0.5574640000000 1.0
C      1  0.4849920000000  0.5540230000000  0.5075270000000 1.0
C      1  0.5540230000000  0.5075270000000  0.4849920000000 1.0
C      1  0.5075280000000  0.4849910000000  0.5540230000000 1.0
C      1  0.5150090000000  0.4459770000000  0.5075280000000 1.0
C      1  0.4849920000000  0.4459770000000  0.4924730000000 1.0
C      1  0.5150090000000  0.5540230000000  0.4924720000000 1.0
C      1  0.4459770000000  0.4924720000000  0.4849910000000 1.0
C      1  0.5540230000000  0.4924730000000  0.5150090000000 1.0
C      1  0.4459770000000  0.5075270000000  0.5150080000000 1.0
C      1  0.4924720000000  0.5150080000000  0.5540230000000 1.0
C      1  0.5075270000000  0.5150090000000  0.4459770000000 1.0
C      1  0.4924720000000  0.4849920000000  0.4459770000000 1.0
C      1  0.4849920000000  0.5540230000000  0.4924720000000 1.0
C      1  0.5540230000000  0.5075280000000  0.5150090000000 1.0
C      1  0.5075270000000  0.4849920000000  0.4459770000000 1.0
C      1  0.5150090000000  0.4459770000000  0.4924720000000 1.0
C      1  0.4849920000000  0.4459770000000  0.5075280000000 1.0
C      1  0.5150090000000  0.5540230000000  0.5075270000000 1.0
C      1  0.4459770000000  0.4924720000000  0.5150080000000 1.0
C      1  0.5540230000000  0.4924720000000  0.4849920000000 1.0
C      1  0.4459770000000  0.5075270000000  0.4849920000000 1.0
C      1  0.4924720000000  0.5150090000000  0.4459770000000 1.0
C      1  0.5075270000000  0.5150080000000  0.5540230000000 1.0
C      1  0.4924720000000  0.4849910000000  0.5540230000000 1.0
C      1  0.4877990000000  0.4510980000000  0.5440420000000 1.0
C      1  0.4510980000000  0.5440420000000  0.4877990000000 1.0
C      1  0.5440420000000  0.4877990000000  0.4510980000000 1.0
C      1  0.5122010000000  0.5489020000000  0.5440420000000 1.0
C      1  0.4878000000000  0.5489020000000  0.4559580000000 1.0
C      1  0.5122020000000  0.4510980000000  0.4559580000000 1.0
C      1  0.5489020000000  0.4559580000000  0.4878000000000 1.0
C      1  0.4510980000000  0.4559580000000  0.5122000000000 1.0
C      1  0.5489020000000  0.5440420000000  0.5122010000000 1.0
C      1  0.4559580000000  0.5122020000000  0.4510980000000 1.0
C      1  0.5440420000000  0.5122010000000  0.5489020000000 1.0
C      1  0.4559580000000  0.4877980000000  0.5489010000000 1.0
C      1  0.4877990000000  0.4510980000000  0.4559580000000 1.0
C      1  0.4510980000000  0.5440420000000  0.5122020000000 1.0
C      1  0.5440420000000  0.4877990000000  0.5489020000000 1.0
C      1  0.5122010000000  0.5489020000000  0.4559580000000 1.0
C      1  0.4878000000000  0.5489020000000  0.5440420000000 1.0
C      1  0.5122010000000  0.4510980000000  0.5440420000000 1.0
C      1  0.5489020000000  0.4559580000000  0.5122020000000 1.0
C      1  0.4510990000000  0.4559570000000  0.4877980000000 1.0
C      1  0.5489020000000  0.5440420000000  0.4878000000000 1.0
C      1  0.4559580000000  0.5122000000000  0.5489020000000 1.0
C      1  0.5440420000000  0.5122010000000  0.4510980000000 1.0
C      1  0.4559580000000  0.4878010000000  0.4510970000000 1.0
C      1  0.5252360000000  0.4338620000000  0.5631290000000 1.0
C      1  0.4338630000000  0.5631290000000  0.5252380000000 1.0
C      1  0.5631290000000  0.5252380000000  0.4338630000000 1.0
C      1  0.4747630000000  0.5661380000000  0.5631290000000 1.0
C      1  0.5252360000000  0.5661380000000  0.4368710000000 1.0
C      1  0.4747610000000  0.4338630000000  0.4368710000000 1.0
C      1  0.5661370000000  0.4368710000000  0.5252370000000 1.0
C      1  0.4338640000000  0.4368710000000  0.4747620000000 1.0
C      1  0.5661380000000  0.5631290000000  0.4747640000000 1.0
C      1  0.4368710000000  0.4747670000000  0.4338600000000 1.0
C      1  0.5631290000000  0.4747630000000  0.5661370000000 1.0
C      1  0.4368710000000  0.5252350000000  0.5661380000000 1.0
C      1  0.5252380000000  0.4338630000000  0.4368710000000 1.0
C      1  0.4338630000000  0.5631290000000  0.4747620000000 1.0
C      1  0.5631290000000  0.5252360000000  0.5661380000000 1.0
C      1  0.4747640000000  0.5661380000000  0.4368710000000 1.0
C      1  0.5252370000000  0.5661370000000  0.5631290000000 1.0
C      1  0.4747640000000  0.4338620000000  0.5631290000000 1.0
C      1  0.5661390000000  0.4368710000000  0.4747660000000 1.0
C      1  0.4338620000000  0.4368710000000  0.5252360000000 1.0
C      1  0.5661380000000  0.5631290000000  0.5252370000000 1.0
C      1  0.4368710000000  0.4747620000000  0.5661370000000 1.0
C      1  0.5631280000000  0.4747620000000  0.4338630000000 1.0
C      1  0.4368710000000  0.5252370000000  0.4338630000000 1.0
C      1  0.5145360000000  0.4721810000000  0.4495040000000 1.0
C      1  0.4721800000000  0.4495040000000  0.5145360000000 1.0
C      1  0.4495040000000  0.5145370000000  0.4721810000000 1.0
C      1  0.4854630000000  0.5278200000000  0.4495040000000 1.0
C      1  0.5145360000000  0.5278200000000  0.5504960000000 1.0
C      1  0.4854630000000  0.4721800000000  0.5504960000000 1.0
C      1  0.5278200000000  0.5504960000000  0.5145360000000 1.0
C      1  0.4721800000000  0.5504960000000  0.4854640000000 1.0
C      1  0.5278200000000  0.4495040000000  0.4854640000000 1.0
C      1  0.5504950000000  0.4854630000000  0.4721800000000 1.0
C      1  0.4495040000000  0.4854630000000  0.5278190000000 1.0
C      1  0.5504960000000  0.5145360000000  0.5278200000000 1.0
C      1  0.5145360000000  0.4721800000000  0.5504960000000 1.0
C      1  0.4721810000000  0.4495040000000  0.4854640000000 1.0
C      1  0.4495040000000  0.5145360000000  0.5278200000000 1.0
C      1  0.4854630000000  0.5278200000000  0.5504950000000 1.0
C      1  0.5145360000000  0.5278200000000  0.4495040000000 1.0
C      1  0.4854630000000  0.4721800000000  0.4495050000000 1.0
C      1  0.5278200000000  0.5504950000000  0.4854630000000 1.0
C      1  0.4721800000000  0.5504960000000  0.5145360000000 1.0
C      1  0.5278200000000  0.4495040000000  0.5145370000000 1.0
C      1  0.5504960000000  0.4854640000000  0.5278200000000 1.0
C      1  0.4495040000000  0.4854640000000  0.4721800000000 1.0
C      1  0.5504960000000  0.5145360000000  0.4721800000000 1.0
C      1  0.4881010000000  0.4853650000000  0.4323950000000 1.0
C      1  0.4853660000000  0.4323950000000  0.4881020000000 1.0
C      1  0.4323950000000  0.4881010000000  0.4853650000000 1.0
C      1  0.5118980000000  0.5146340000000  0.4323950000000 1.0
C      1  0.4881010000000  0.5146350000000  0.5676050000000 1.0
C      1  0.5118980000000  0.4853660000000  0.5676050000000 1.0
C      1  0.5146350000000  0.5676050000000  0.4881010000000 1.0
C      1  0.4853660000000  0.5676050000000  0.5118980000000 1.0
C      1  0.5146340000000  0.4323950000000  0.5118990000000 1.0
C      1  0.5676050000000  0.5118980000000  0.4853650000000 1.0
C      1  0.4323950000000  0.5118980000000  0.5146350000000 1.0
C      1  0.5676050000000  0.4881020000000  0.5146340000000 1.0
C      1  0.4881010000000  0.4853660000000  0.5676050000000 1.0
C      1  0.4853660000000  0.4323950000000  0.5118990000000 1.0
C      1  0.4323950000000  0.4881010000000  0.5146340000000 1.0
C      1  0.5118980000000  0.5146350000000  0.5676050000000 1.0
C      1  0.4881010000000  0.5146350000000  0.4323950000000 1.0
C      1  0.5118980000000  0.4853650000000  0.4323950000000 1.0
C      1  0.5146350000000  0.5676050000000  0.5118980000000 1.0
C      1  0.4853660000000  0.5676050000000  0.4881010000000 1.0
C      1  0.5146350000000  0.4323950000000  0.4881020000000 1.0
C      1  0.5676050000000  0.5118990000000  0.5146350000000 1.0
C      1  0.4323950000000  0.5118980000000  0.4853660000000 1.0
C      1  0.5676050000000  0.4881010000000  0.4853650000000 1.0
C      1  0.4742690000000  0.5129970000000  0.5687780000000 1.0
C      1  0.5129970000000  0.5687780000000  0.4742690000000 1.0
C      1  0.5687780000000  0.4742690000000  0.5129960000000 1.0
C      1  0.5257310000000  0.4870030000000  0.5687780000000 1.0
C      1  0.4742690000000  0.4870040000000  0.4312220000000 1.0
C      1  0.5257300000000  0.5129970000000  0.4312220000000 1.0
C      1  0.4870050000000  0.4312220000000  0.4742700000000 1.0
C      1  0.5129970000000  0.4312220000000  0.5257310000000 1.0
C      1  0.4870040000000  0.5687780000000  0.5257310000000 1.0
C      1  0.4312220000000  0.5257310000000  0.5129970000000 1.0
C      1  0.5687780000000  0.5257300000000  0.4870030000000 1.0
C      1  0.4312220000000  0.4742690000000  0.4870020000000 1.0
C      1  0.4742690000000  0.5129970000000  0.4312220000000 1.0
C      1  0.5129970000000  0.5687780000000  0.5257300000000 1.0
C      1  0.5687780000000  0.4742690000000  0.4870030000000 1.0
C      1  0.5257300000000  0.4870040000000  0.4312220000000 1.0
C      1  0.4742690000000  0.4870040000000  0.5687780000000 1.0
C      1  0.5257310000000  0.5129970000000  0.5687780000000 1.0
C      1  0.4870030000000  0.4312220000000  0.5257310000000 1.0
C      1  0.5129980000000  0.4312220000000  0.4742690000000 1.0
C      1  0.4870030000000  0.5687780000000  0.4742690000000 1.0
C      1  0.4312220000000  0.5257310000000  0.4870040000000 1.0
C      1  0.5687780000000  0.5257310000000  0.5129970000000 1.0
C      1  0.4312220000000  0.4742690000000  0.5129960000000 1.0
C      1  0.5071310000000  0.5817940000000  0.5253380000000 1.0
C      1  0.5817930000000  0.5253380000000  0.5071310000000 1.0
C      1  0.5253380000000  0.5071310000000  0.5817930000000 1.0
C      1  0.4928690000000  0.4182070000000  0.5253390000000 1.0
C      1  0.5071320000000  0.4182070000000  0.4746620000000 1.0
C      1  0.4928690000000  0.5817930000000  0.4746610000000 1.0
C      1  0.4182070000000  0.4746610000000  0.5071300000000 1.0
C      1  0.5817930000000  0.4746620000000  0.4928690000000 1.0
C      1  0.4182070000000  0.5253380000000  0.4928690000000 1.0
C      1  0.4746620000000  0.4928690000000  0.5817930000000 1.0
C      1  0.5253380000000  0.4928690000000  0.4182060000000 1.0
C      1  0.4746610000000  0.5071310000000  0.4182070000000 1.0
C      1  0.5071310000000  0.5817930000000  0.4746610000000 1.0
C      1  0.5817930000000  0.5253380000000  0.4928690000000 1.0
C      1  0.5253380000000  0.5071310000000  0.4182060000000 1.0
C      1  0.4928700000000  0.4182070000000  0.4746620000000 1.0
C      1  0.5071310000000  0.4182070000000  0.5253390000000 1.0
C      1  0.4928690000000  0.5817940000000  0.5253380000000 1.0
C      1  0.4182070000000  0.4746620000000  0.4928680000000 1.0
C      1  0.5817930000000  0.4746620000000  0.5071310000000 1.0
C      1  0.4182070000000  0.5253380000000  0.5071320000000 1.0
C      1  0.4746610000000  0.4928690000000  0.4182070000000 1.0
C      1  0.5253380000000  0.4928690000000  0.5817930000000 1.0
C      1  0.4746620000000  0.5071320000000  0.5817930000000 1.0
C      1  0.4844650000000  0.4112680000000  0.5148560000000 1.0
C      1  0.4112680000000  0.5148560000000  0.4844650000000 1.0
C      1  0.5148550000000  0.4844640000000  0.4112680000000 1.0
C      1  0.5155360000000  0.5887320000000  0.5148550000000 1.0
C      1  0.4844650000000  0.5887320000000  0.4851440000000 1.0
C      1  0.5155360000000  0.4112680000000  0.4851450000000 1.0
C      1  0.5887320000000  0.4851440000000  0.4844640000000 1.0
C      1  0.4112680000000  0.4851440000000  0.5155350000000 1.0
C      1  0.5887320000000  0.5148550000000  0.5155350000000 1.0
C      1  0.4851440000000  0.5155360000000  0.4112680000000 1.0
C      1  0.5148550000000  0.5155360000000  0.5887320000000 1.0
C      1  0.4851440000000  0.4844650000000  0.5887320000000 1.0
C      1  0.4844650000000  0.4112680000000  0.4851450000000 1.0
C      1  0.4112680000000  0.5148550000000  0.5155360000000 1.0
C      1  0.5148550000000  0.4844650000000  0.5887320000000 1.0
C      1  0.5155360000000  0.5887320000000  0.4851440000000 1.0
C      1  0.4844650000000  0.5887320000000  0.5148550000000 1.0
C      1  0.5155360000000  0.4112680000000  0.5148560000000 1.0
C      1  0.5887320000000  0.4851440000000  0.5155350000000 1.0
C      1  0.4112680000000  0.4851440000000  0.4844640000000 1.0
C      1  0.5887320000000  0.5148550000000  0.4844640000000 1.0
C      1  0.4851440000000  0.5155360000000  0.5887320000000 1.0
C      1  0.5148550000000  0.5155350000000  0.4112680000000 1.0
C      1  0.4851440000000  0.4844650000000  0.4112680000000 1.0
C      1  0.4328610000000  0.4591040000000  0.4568040000000 1.0
C      1  0.4591030000000  0.4568070000000  0.4328600000000 1.0
C      1  0.4568090000000  0.4328540000000  0.4591060000000 1.0
C      1  0.5671420000000  0.5408950000000  0.4568070000000 1.0
C      1  0.4328580000000  0.5408950000000  0.5431940000000 1.0
C      1  0.5671430000000  0.4591050000000  0.5431930000000 1.0
C      1  0.5408950000000  0.5431930000000  0.4328570000000 1.0
C      1  0.4591040000000  0.5431940000000  0.5671400000000 1.0
C      1  0.5408960000000  0.4568060000000  0.5671410000000 1.0
C      1  0.5431950000000  0.5671400000000  0.4591040000000 1.0
C      1  0.4568080000000  0.5671430000000  0.5408950000000 1.0
C      1  0.5431930000000  0.4328590000000  0.5408960000000 1.0
C      1  0.4328580000000  0.4591040000000  0.5431930000000 1.0
C      1  0.4591050000000  0.4568060000000  0.5671420000000 1.0
C      1  0.4568060000000  0.4328590000000  0.5408960000000 1.0
C      1  0.5671410000000  0.5408960000000  0.5431940000000 1.0
C      1  0.4328570000000  0.5408950000000  0.4568080000000 1.0
C      1  0.5671400000000  0.4591040000000  0.4568060000000 1.0
C      1  0.5408960000000  0.5431930000000  0.5671420000000 1.0
C      1  0.4591040000000  0.5431950000000  0.4328590000000 1.0
C      1  0.5408940000000  0.4568080000000  0.4328550000000 1.0
C      1  0.5431930000000  0.5671420000000  0.5408950000000 1.0
C      1  0.4568070000000  0.5671420000000  0.4591040000000 1.0
C      1  0.5431950000000  0.4328600000000  0.4591040000000 1.0
C      1  0.4221200000000  0.4924110000000  0.5252480000000 1.0
C      1  0.4924110000000  0.5252480000000  0.4221200000000 1.0
C      1  0.5252490000000  0.4221200000000  0.4924120000000 1.0
C      1  0.5778800000000  0.5075890000000  0.5252480000000 1.0
C      1  0.4221200000000  0.5075890000000  0.4747520000000 1.0
C      1  0.5778800000000  0.4924110000000  0.4747510000000 1.0
C      1  0.5075880000000  0.4747520000000  0.4221200000000 1.0
C      1  0.4924110000000  0.4747520000000  0.5778800000000 1.0
C      1  0.5075880000000  0.5252480000000  0.5778800000000 1.0
C      1  0.4747520000000  0.5778800000000  0.4924110000000 1.0
C      1  0.5252480000000  0.5778800000000  0.5075880000000 1.0
C      1  0.4747520000000  0.4221200000000  0.5075890000000 1.0
C      1  0.4221200000000  0.4924110000000  0.4747520000000 1.0
C      1  0.4924110000000  0.5252490000000  0.5778800000000 1.0
C      1  0.5252480000000  0.4221200000000  0.5075890000000 1.0
C      1  0.5778800000000  0.5075880000000  0.4747510000000 1.0
C      1  0.4221200000000  0.5075880000000  0.5252480000000 1.0
C      1  0.5778800000000  0.4924110000000  0.5252480000000 1.0
C      1  0.5075880000000  0.4747520000000  0.5778800000000 1.0
C      1  0.4924110000000  0.4747520000000  0.4221200000000 1.0
C      1  0.5075880000000  0.5252480000000  0.4221200000000 1.0
C      1  0.4747520000000  0.5778800000000  0.5075880000000 1.0
C      1  0.5252480000000  0.5778800000000  0.4924110000000 1.0
C      1  0.4747520000000  0.4221200000000  0.4924120000000 1.0
C      1  0.5241320000000  0.4448960000000  0.5416390000000 1.0
C      1  0.4448970000000  0.5416390000000  0.5241340000000 1.0
C      1  0.5416390000000  0.5241330000000  0.4448970000000 1.0
C      1  0.4758680000000  0.5551040000000  0.5416380000000 1.0
C      1  0.5241340000000  0.5551030000000  0.4583610000000 1.0
C      1  0.4758680000000  0.4448960000000  0.4583620000000 1.0
C      1  0.5551040000000  0.4583610000000  0.5241330000000 1.0
C      1  0.4448990000000  0.4583610000000  0.4758640000000 1.0
C      1  0.5551040000000  0.5416380000000  0.4758680000000 1.0
C      1  0.4583610000000  0.4758690000000  0.4448950000000 1.0
C      1  0.5416390000000  0.4758670000000  0.5551030000000 1.0
C      1  0.4583610000000  0.5241320000000  0.5551030000000 1.0
C      1  0.5241350000000  0.4448980000000  0.4583610000000 1.0
C      1  0.4448960000000  0.5416390000000  0.4758670000000 1.0
C      1  0.5416390000000  0.5241320000000  0.5551040000000 1.0
C      1  0.4758680000000  0.5551040000000  0.4583610000000 1.0
C      1  0.5241330000000  0.5551030000000  0.5416390000000 1.0
C      1  0.4758670000000  0.4448970000000  0.5416390000000 1.0
C      1  0.5551040000000  0.4583610000000  0.4758690000000 1.0
C      1  0.4448960000000  0.4583610000000  0.5241320000000 1.0
C      1  0.5551030000000  0.5416390000000  0.5241330000000 1.0
C      1  0.4583610000000  0.4758670000000  0.5551030000000 1.0
C      1  0.5416380000000  0.4758680000000  0.4448960000000 1.0
C      1  0.4583610000000  0.5241340000000  0.4448970000000 1.0
C      1  0.4444700000000  0.4921580000000  0.5400980000000 1.0
C      1  0.4921580000000  0.5400980000000  0.4444700000000 1.0
C      1  0.5400980000000  0.4444700000000  0.4921590000000 1.0
C      1  0.5555300000000  0.5078420000000  0.5400980000000 1.0
C      1  0.4444700000000  0.5078420000000  0.4599020000000 1.0
C      1  0.5555300000000  0.4921580000000  0.4599020000000 1.0
C      1  0.5078420000000  0.4599020000000  0.4444700000000 1.0
C      1  0.4921580000000  0.4599020000000  0.5555300000000 1.0
C      1  0.5078420000000  0.5400980000000  0.5555300000000 1.0
C      1  0.4599020000000  0.5555300000000  0.4921580000000 1.0
C      1  0.5400980000000  0.5555300000000  0.5078420000000 1.0
C      1  0.4599020000000  0.4444700000000  0.5078410000000 1.0
C      1  0.4444700000000  0.4921590000000  0.4599020000000 1.0
C      1  0.4921580000000  0.5400980000000  0.5555300000000 1.0
C      1  0.5400980000000  0.4444700000000  0.5078420000000 1.0
C      1  0.5555300000000  0.5078420000000  0.4599020000000 1.0
C      1  0.4444700000000  0.5078410000000  0.5400980000000 1.0
C      1  0.5555300000000  0.4921580000000  0.5400980000000 1.0
C      1  0.5078420000000  0.4599020000000  0.5555300000000 1.0
C      1  0.4921580000000  0.4599020000000  0.4444700000000 1.0
C      1  0.5078420000000  0.5400980000000  0.4444700000000 1.0
C      1  0.4599020000000  0.5555300000000  0.5078420000000 1.0
C      1  0.5400980000000  0.5555300000000  0.4921580000000 1.0
C      1  0.4599020000000  0.4444690000000  0.4921580000000 1.0
C      1  0.4379160000000  0.4290510000000  0.5164960000000 1.0
C      1  0.4290510000000  0.5164970000000  0.4379160000000 1.0
C      1  0.5164970000000  0.4379160000000  0.4290520000000 1.0
C      1  0.5620840000000  0.5709490000000  0.5164960000000 1.0
C      1  0.4379160000000  0.5709490000000  0.4835030000000 1.0
C      1  0.5620850000000  0.4290510000000  0.4835060000000 1.0
C      1  0.5709480000000  0.4835030000000  0.4379150000000 1.0
C      1  0.4290510000000  0.4835030000000  0.5620840000000 1.0
C      1  0.5709490000000  0.5164960000000  0.5620840000000 1.0
C      1  0.4835040000000  0.5620840000000  0.4290510000000 1.0
C      1  0.5164970000000  0.5620840000000  0.5709480000000 1.0
C      1  0.4835040000000  0.4379160000000  0.5709490000000 1.0
C      1  0.4379170000000  0.4290520000000  0.4835030000000 1.0
C      1  0.4290510000000  0.5164950000000  0.5620840000000 1.0
C      1  0.5164960000000  0.4379160000000  0.5709490000000 1.0
C      1  0.5620850000000  0.5709490000000  0.4835040000000 1.0
C      1  0.4379160000000  0.5709480000000  0.5164970000000 1.0
C      1  0.5620840000000  0.4290510000000  0.5164970000000 1.0
C      1  0.5709490000000  0.4835040000000  0.5620840000000 1.0
C      1  0.4290500000000  0.4835060000000  0.4379150000000 1.0
C      1  0.5709480000000  0.5164970000000  0.4379160000000 1.0
C      1  0.4835040000000  0.5620840000000  0.5709490000000 1.0
C      1  0.5164960000000  0.5620840000000  0.4290510000000 1.0
C      1  0.4835020000000  0.4379160000000  0.4290510000000 1.0
C      1  0.5970820000000  0.5072970000000  0.4923060000000 1.0
C      1  0.5072970000000  0.4923070000000  0.5970820000000 1.0
C      1  0.4923070000000  0.5970820000000  0.5072970000000 1.0
C      1  0.4029180000000  0.4927020000000  0.4923060000000 1.0
C      1  0.5970820000000  0.4927030000000  0.5076930000000 1.0
C      1  0.4029180000000  0.5072970000000  0.5076940000000 1.0
C      1  0.4927030000000  0.5076940000000  0.5970820000000 1.0
C      1  0.5072970000000  0.5076930000000  0.4029180000000 1.0
C      1  0.4927020000000  0.4923060000000  0.4029180000000 1.0
C      1  0.5076940000000  0.4029180000000  0.5072980000000 1.0
C      1  0.4923070000000  0.4029180000000  0.4927030000000 1.0
C      1  0.5076940000000  0.5970820000000  0.4927020000000 1.0
C      1  0.5970820000000  0.5072970000000  0.5076930000000 1.0
C      1  0.5072970000000  0.4923060000000  0.4029180000000 1.0
C      1  0.4923070000000  0.5970820000000  0.4927020000000 1.0
C      1  0.4029180000000  0.4927020000000  0.5076930000000 1.0
C      1  0.5970820000000  0.4927030000000  0.4923060000000 1.0
C      1  0.4029180000000  0.5072970000000  0.4923060000000 1.0
C      1  0.4927020000000  0.5076940000000  0.4029180000000 1.0
C      1  0.5072970000000  0.5076940000000  0.5970820000000 1.0
C      1  0.4927030000000  0.4923070000000  0.5970820000000 1.0
C      1  0.5076940000000  0.4029180000000  0.4927030000000 1.0
C      1  0.4923070000000  0.4029180000000  0.5072970000000 1.0
C      1  0.5076940000000  0.5970820000000  0.5072970000000 1.0
C      1  0.4665560000000  0.4384280000000  0.5512680000000 1.0
C      1  0.4384280000000  0.5512670000000  0.4665570000000 1.0
C      1  0.5512660000000  0.4665570000000  0.4384280000000 1.0
C      1  0.5334440000000  0.5615720000000  0.5512670000000 1.0
C      1  0.4665580000000  0.5615730000000  0.4487330000000 1.0
C      1  0.5334470000000  0.4384300000000  0.4487320000000 1.0
C      1  0.5615740000000  0.4487320000000  0.4665590000000 1.0
C      1  0.4384270000000  0.4487320000000  0.5334420000000 1.0
C      1  0.5615720000000  0.5512680000000  0.5334440000000 1.0
C      1  0.4487320000000  0.5334450000000  0.4384290000000 1.0
C      1  0.5512670000000  0.5334430000000  0.5615730000000 1.0
C      1  0.4487320000000  0.4665560000000  0.5615710000000 1.0
C      1  0.4665570000000  0.4384280000000  0.4487340000000 1.0
C      1  0.4384290000000  0.5512670000000  0.5334460000000 1.0
C      1  0.5512680000000  0.4665560000000  0.5615720000000 1.0
C      1  0.5334440000000  0.5615720000000  0.4487320000000 1.0
C      1  0.4665580000000  0.5615730000000  0.5512670000000 1.0
C      1  0.5334430000000  0.4384270000000  0.5512680000000 1.0
C      1  0.5615720000000  0.4487330000000  0.5334440000000 1.0
C      1  0.4384310000000  0.4487310000000  0.4665520000000 1.0
C      1  0.5615730000000  0.5512670000000  0.4665580000000 1.0
C      1  0.4487320000000  0.5334430000000  0.5615730000000 1.0
C      1  0.5512670000000  0.5334440000000  0.4384290000000 1.0
C      1  0.4487320000000  0.4665600000000  0.4384250000000 1.0
C      1  0.5374440000000  0.5689480000000  0.4720400000000 1.0
C      1  0.5689500000000  0.4720400000000  0.5374430000000 1.0
C      1  0.4720390000000  0.5374440000000  0.5689480000000 1.0
C      1  0.4625600000000  0.4310490000000  0.4720410000000 1.0
C      1  0.5374430000000  0.4310510000000  0.5279610000000 1.0
C      1  0.4625580000000  0.5689500000000  0.5279600000000 1.0
C      1  0.4310510000000  0.5279590000000  0.5374430000000 1.0
C      1  0.5689490000000  0.5279600000000  0.4625570000000 1.0
C      1  0.4310520000000  0.4720400000000  0.4625560000000 1.0
C      1  0.5279600000000  0.4625570000000  0.5689490000000 1.0
C      1  0.4720390000000  0.4625560000000  0.4310530000000 1.0
C      1  0.5279600000000  0.5374420000000  0.4310500000000 1.0
C      1  0.5374430000000  0.5689490000000  0.5279600000000 1.0
C      1  0.5689470000000  0.4720390000000  0.4625560000000 1.0
C      1  0.4720400000000  0.5374440000000  0.4310510000000 1.0
C      1  0.4625570000000  0.4310510000000  0.5279600000000 1.0
C      1  0.5374440000000  0.4310510000000  0.4720400000000 1.0
C      1  0.4625570000000  0.5689490000000  0.4720400000000 1.0
C      1  0.4310500000000  0.5279600000000  0.4625580000000 1.0
C      1  0.5689490000000  0.5279600000000  0.5374430000000 1.0
C      1  0.4310510000000  0.4720400000000  0.5374420000000 1.0
C      1  0.5279590000000  0.4625580000000  0.4310500000000 1.0
C      1  0.4720400000000  0.4625570000000  0.5689490000000 1.0
C      1  0.5279600000000  0.5374430000000  0.5689490000000 1.0
C      1  0.5153670000000  0.4927310000000  0.5432870000000 1.0
C      1  0.4927310000000  0.5432860000000  0.5153670000000 1.0
C      1  0.5432870000000  0.5153670000000  0.4927310000000 1.0
C      1  0.4846330000000  0.5072690000000  0.5432860000000 1.0
C      1  0.5153670000000  0.5072690000000  0.4567140000000 1.0
C      1  0.4846330000000  0.4927310000000  0.4567140000000 1.0
C      1  0.5072690000000  0.4567140000000  0.5153670000000 1.0
C      1  0.4927310000000  0.4567140000000  0.4846330000000 1.0
C      1  0.5072690000000  0.5432860000000  0.4846330000000 1.0
C      1  0.4567140000000  0.4846330000000  0.4927310000000 1.0
C      1  0.5432860000000  0.4846330000000  0.5072690000000 1.0
C      1  0.4567140000000  0.5153670000000  0.5072690000000 1.0
C      1  0.5153670000000  0.4927310000000  0.4567130000000 1.0
C      1  0.4927310000000  0.5432860000000  0.4846330000000 1.0
C      1  0.5432860000000  0.5153670000000  0.5072690000000 1.0
C      1  0.4846330000000  0.5072690000000  0.4567140000000 1.0
C      1  0.5153670000000  0.5072690000000  0.5432870000000 1.0
C      1  0.4846330000000  0.4927310000000  0.5432860000000 1.0
C      1  0.5072690000000  0.4567140000000  0.4846330000000 1.0
C      1  0.4927310000000  0.4567140000000  0.5153670000000 1.0
C      1  0.5072690000000  0.5432860000000  0.5153670000000 1.0
C      1  0.4567140000000  0.4846330000000  0.5072690000000 1.0
C      1  0.5432860000000  0.4846330000000  0.4927310000000 1.0
C      1  0.4567130000000  0.5153670000000  0.4927310000000 1.0
C      1  0.5076670000000  0.4590590000000  0.4685540000000 1.0
C      1  0.4590590000000  0.4685540000000  0.5076660000000 1.0
C      1  0.4685540000000  0.5076680000000  0.4590590000000 1.0
C      1  0.4923330000000  0.5409410000000  0.4685540000000 1.0
C      1  0.5076670000000  0.5409410000000  0.5314450000000 1.0
C      1  0.4923330000000  0.4590590000000  0.5314460000000 1.0
C      1  0.5409410000000  0.5314450000000  0.5076670000000 1.0
C      1  0.4590590000000  0.5314460000000  0.4923330000000 1.0
C      1  0.5409410000000  0.4685550000000  0.4923330000000 1.0
C      1  0.5314450000000  0.4923330000000  0.4590590000000 1.0
C      1  0.4685540000000  0.4923330000000  0.5409410000000 1.0
C      1  0.5314450000000  0.5076670000000  0.5409410000000 1.0
C      1  0.5076670000000  0.4590590000000  0.5314460000000 1.0
C      1  0.4590590000000  0.4685540000000  0.4923320000000 1.0
C      1  0.4685540000000  0.5076670000000  0.5409410000000 1.0
C      1  0.4923330000000  0.5409410000000  0.5314450000000 1.0
C      1  0.5076670000000  0.5409410000000  0.4685540000000 1.0
C      1  0.4923330000000  0.4590590000000  0.4685550000000 1.0
C      1  0.5409410000000  0.5314450000000  0.4923330000000 1.0
C      1  0.4590590000000  0.5314460000000  0.5076670000000 1.0
C      1  0.5409410000000  0.4685550000000  0.5076680000000 1.0
C      1  0.5314460000000  0.4923330000000  0.5409410000000 1.0
C      1  0.4685540000000  0.4923340000000  0.4590590000000 1.0
C      1  0.5314450000000  0.5076670000000  0.4590590000000 1.0
C      1  0.5144030000000  0.5315860000000  0.4919090000000 1.0
C      1  0.5315860000000  0.4919100000000  0.5144030000000 1.0
C      1  0.4919090000000  0.5144030000000  0.5315860000000 1.0
C      1  0.4855970000000  0.4684140000000  0.4919090000000 1.0
C      1  0.5144030000000  0.4684140000000  0.5080910000000 1.0
C      1  0.4855970000000  0.5315860000000  0.5080900000000 1.0
C      1  0.4684140000000  0.5080900000000  0.5144030000000 1.0
C      1  0.5315860000000  0.5080900000000  0.4855970000000 1.0
C      1  0.4684140000000  0.4919100000000  0.4855970000000 1.0
C      1  0.5080900000000  0.4855970000000  0.5315860000000 1.0
C      1  0.4919090000000  0.4855970000000  0.4684140000000 1.0
C      1  0.5080900000000  0.5144030000000  0.4684140000000 1.0
C      1  0.5144030000000  0.5315860000000  0.5080900000000 1.0
C      1  0.5315860000000  0.4919090000000  0.4855970000000 1.0
C      1  0.4919100000000  0.5144040000000  0.4684140000000 1.0
C      1  0.4855970000000  0.4684140000000  0.5080900000000 1.0
C      1  0.5144030000000  0.4684140000000  0.4919100000000 1.0
C      1  0.4855970000000  0.5315860000000  0.4919090000000 1.0
C      1  0.4684140000000  0.5080910000000  0.4855970000000 1.0
C      1  0.5315860000000  0.5080900000000  0.5144030000000 1.0
C      1  0.4684140000000  0.4919090000000  0.5144030000000 1.0
C      1  0.5080900000000  0.4855970000000  0.4684140000000 1.0
C      1  0.4919090000000  0.4855970000000  0.5315860000000 1.0
C      1  0.5080900000000  0.5144030000000  0.5315860000000 1.0
C      1  0.4719260000000  0.4642820000000  0.4868790000000 1.0
C      1  0.4642820000000  0.4868800000000  0.4719260000000 1.0
C      1  0.4868800000000  0.4719260000000  0.4642820000000 1.0
C      1  0.5280740000000  0.5357180000000  0.4868800000000 1.0
C      1  0.4719260000000  0.5357180000000  0.5131210000000 1.0
C      1  0.5280740000000  0.4642820000000  0.5131210000000 1.0
C      1  0.5357180000000  0.5131210000000  0.4719260000000 1.0
C      1  0.4642820000000  0.5131200000000  0.5280740000000 1.0
C      1  0.5357180000000  0.4868790000000  0.5280740000000 1.0
C      1  0.5131210000000  0.5280740000000  0.4642820000000 1.0
C      1  0.4868790000000  0.5280740000000  0.5357180000000 1.0
C      1  0.5131200000000  0.4719260000000  0.5357180000000 1.0
C      1  0.4719260000000  0.4642820000000  0.5131200000000 1.0
C      1  0.4642820000000  0.4868790000000  0.5280740000000 1.0
C      1  0.4868790000000  0.4719260000000  0.5357180000000 1.0
C      1  0.5280740000000  0.5357180000000  0.5131210000000 1.0
C      1  0.4719260000000  0.5357180000000  0.4868800000000 1.0
C      1  0.5280740000000  0.4642820000000  0.4868800000000 1.0
C      1  0.5357180000000  0.5131200000000  0.5280740000000 1.0
C      1  0.4642820000000  0.5131210000000  0.4719260000000 1.0
C      1  0.5357180000000  0.4868790000000  0.4719260000000 1.0
C      1  0.5131210000000  0.5280740000000  0.5357180000000 1.0
C      1  0.4868790000000  0.5280740000000  0.4642820000000 1.0
C      1  0.5131210000000  0.4719260000000  0.4642820000000 1.0
C      1  0.5761230000000  0.4926670000000  0.4474650000000 1.0
C      1  0.4926670000000  0.4474660000000  0.5761240000000 1.0
C      1  0.4474650000000  0.5761230000000  0.4926680000000 1.0
C      1  0.4238760000000  0.5073330000000  0.4474660000000 1.0
C      1  0.5761240000000  0.5073320000000  0.5525340000000 1.0
C      1  0.4238760000000  0.4926670000000  0.5525340000000 1.0
C      1  0.5073320000000  0.5525350000000  0.5761230000000 1.0
C      1  0.4926680000000  0.5525340000000  0.4238760000000 1.0
C      1  0.5073320000000  0.4474650000000  0.4238770000000 1.0
C      1  0.5525340000000  0.4238760000000  0.4926690000000 1.0
C      1  0.4474660000000  0.4238760000000  0.5073320000000 1.0
C      1  0.5525340000000  0.5761230000000  0.5073320000000 1.0
C      1  0.5761240000000  0.4926680000000  0.5525340000000 1.0
C      1  0.4926670000000  0.4474650000000  0.4238770000000 1.0
C      1  0.4474650000000  0.5761230000000  0.5073330000000 1.0
C      1  0.4238760000000  0.5073320000000  0.5525340000000 1.0
C      1  0.5761230000000  0.5073320000000  0.4474650000000 1.0
C      1  0.4238760000000  0.4926690000000  0.4474660000000 1.0
C      1  0.5073320000000  0.5525340000000  0.4238760000000 1.0
C      1  0.4926680000000  0.5525350000000  0.5761230000000 1.0
C      1  0.5073320000000  0.4474660000000  0.5761240000000 1.0
C      1  0.5525340000000  0.4238760000000  0.5073330000000 1.0
C      1  0.4474660000000  0.4238770000000  0.4926670000000 1.0
C      1  0.5525340000000  0.5761240000000  0.4926680000000 1.0
END
