TITL C-1892070-372-81 1.04167770188866e-06 1000000 -2960.11659804546 0 0 420 (Th) n - 1
REM
REM in /nfs/bkarasulu/CARBON/AIRSS/Generating-Clusters/GAP-ML-2020/Higher-Symm/Selected-Sizes/TryA-Only_Ih-Symm/Larger-Clusters
REM
REM
REM
REM
REM
REM ./C.cell (2cf5181f0f1d4d5b12b972d32ad12063)
REM
REM compiler GCC version 9.2.1 20190827 (Red Hat 9.2.1-1)
REM options -cpp -mtune=generic -march=x86-64 -g -O0 -fpre-include=/usr/include/finclude/math-vector-fortran.h
REM seed -760116979 136623180 2136899363 -8987866 -396330141 455452218 -1662873595 1344955295 -1822245502 -1382019204 2039628205 -1111976594 2064116410 1656759332 1595724488 -24230209 -1745034267 -230508472 121985893 -1274426972 -396072185 343110353 -1575441469 1376206247 1308969040 -1321998099 1446162921 -1690301328 -879003582 -567022870 -1499494059 -735883695 -1040385968
REM
CELL 1.54180  100.00000  100.00000  100.00000   90.00000   90.00000   90.00000
LATT -1
SFAC C  
C      1  0.4518150000000  0.4470800000000  0.4844930000000 1.0
C      1  0.4470800000000  0.4844930000000  0.4518150000000 1.0
C      1  0.4844930000000  0.4518150000000  0.4470800000000 1.0
C      1  0.5481850000000  0.5529200000000  0.4844930000000 1.0
C      1  0.4518150000000  0.5529200000000  0.5155070000000 1.0
C      1  0.5481850000000  0.4470800000000  0.5155070000000 1.0
C      1  0.5529200000000  0.5155070000000  0.4518150000000 1.0
C      1  0.4470800000000  0.5155070000000  0.5481850000000 1.0
C      1  0.5529200000000  0.4844930000000  0.5481850000000 1.0
C      1  0.5155070000000  0.5481850000000  0.4470800000000 1.0
C      1  0.4844930000000  0.5481850000000  0.5529200000000 1.0
C      1  0.5155070000000  0.4518150000000  0.5529200000000 1.0
C      1  0.4518150000000  0.4470800000000  0.5155070000000 1.0
C      1  0.4470800000000  0.4844930000000  0.5481850000000 1.0
C      1  0.4844930000000  0.4518150000000  0.5529200000000 1.0
C      1  0.5481850000000  0.5529200000000  0.5155070000000 1.0
C      1  0.4518150000000  0.5529200000000  0.4844930000000 1.0
C      1  0.5481850000000  0.4470800000000  0.4844930000000 1.0
C      1  0.5529200000000  0.5155070000000  0.5481850000000 1.0
C      1  0.4470800000000  0.5155070000000  0.4518150000000 1.0
C      1  0.5529200000000  0.4844930000000  0.4518150000000 1.0
C      1  0.5155070000000  0.5481850000000  0.5529200000000 1.0
C      1  0.4844930000000  0.5481850000000  0.4470800000000 1.0
C      1  0.5155070000000  0.4518150000000  0.4470800000000 1.0
C      1  0.4824710000000  0.5127410000000  0.5762780000000 1.0
C      1  0.5127410000000  0.5762780000000  0.4824710000000 1.0
C      1  0.5762780000000  0.4824710000000  0.5127410000000 1.0
C      1  0.5175290000000  0.4872590000000  0.5762780000000 1.0
C      1  0.4824710000000  0.4872590000000  0.4237220000000 1.0
C      1  0.5175290000000  0.5127410000000  0.4237220000000 1.0
C      1  0.4872590000000  0.4237220000000  0.4824710000000 1.0
C      1  0.5127410000000  0.4237220000000  0.5175290000000 1.0
C      1  0.4872590000000  0.5762780000000  0.5175290000000 1.0
C      1  0.4237220000000  0.5175290000000  0.5127410000000 1.0
C      1  0.5762780000000  0.5175290000000  0.4872590000000 1.0
C      1  0.4237220000000  0.4824710000000  0.4872590000000 1.0
C      1  0.4824710000000  0.5127410000000  0.4237220000000 1.0
C      1  0.5127410000000  0.5762780000000  0.5175290000000 1.0
C      1  0.5762780000000  0.4824710000000  0.4872590000000 1.0
C      1  0.5175290000000  0.4872590000000  0.4237220000000 1.0
C      1  0.4824710000000  0.4872590000000  0.5762780000000 1.0
C      1  0.5175290000000  0.5127410000000  0.5762780000000 1.0
C      1  0.4872590000000  0.4237220000000  0.5175290000000 1.0
C      1  0.5127410000000  0.4237220000000  0.4824710000000 1.0
C      1  0.4872590000000  0.5762780000000  0.4824710000000 1.0
C      1  0.4237220000000  0.5175290000000  0.4872590000000 1.0
C      1  0.5762780000000  0.5175290000000  0.5127410000000 1.0
C      1  0.4237220000000  0.4824710000000  0.5127410000000 1.0
C      1  0.4931000000000  0.5273180000000  0.4398990000000 1.0
C      1  0.5273180000000  0.4398990000000  0.4931000000000 1.0
C      1  0.4398990000000  0.4931000000000  0.5273180000000 1.0
C      1  0.5069000000000  0.4726820000000  0.4398990000000 1.0
C      1  0.4931000000000  0.4726820000000  0.5601010000000 1.0
C      1  0.5069000000000  0.5273180000000  0.5601010000000 1.0
C      1  0.4726820000000  0.5601010000000  0.4931000000000 1.0
C      1  0.5273180000000  0.5601010000000  0.5069000000000 1.0
C      1  0.4726820000000  0.4398990000000  0.5069000000000 1.0
C      1  0.5601010000000  0.5069000000000  0.5273180000000 1.0
C      1  0.4398990000000  0.5069000000000  0.4726820000000 1.0
C      1  0.5601010000000  0.4931000000000  0.4726820000000 1.0
C      1  0.4931000000000  0.5273180000000  0.5601010000000 1.0
C      1  0.5273180000000  0.4398990000000  0.5069000000000 1.0
C      1  0.4398990000000  0.4931000000000  0.4726820000000 1.0
C      1  0.5069000000000  0.4726820000000  0.5601010000000 1.0
C      1  0.4931000000000  0.4726820000000  0.4398990000000 1.0
C      1  0.5069000000000  0.5273180000000  0.4398990000000 1.0
C      1  0.4726820000000  0.5601010000000  0.5069000000000 1.0
C      1  0.5273180000000  0.5601010000000  0.4931000000000 1.0
C      1  0.4726820000000  0.4398990000000  0.4931000000000 1.0
C      1  0.5601010000000  0.5069000000000  0.4726820000000 1.0
C      1  0.4398990000000  0.5069000000000  0.5273180000000 1.0
C      1  0.5601010000000  0.4931000000000  0.5273180000000 1.0
C      1  0.5585270000000  0.4520550000000  0.5072250000000 1.0
C      1  0.4520550000000  0.5072250000000  0.5585270000000 1.0
C      1  0.5072250000000  0.5585270000000  0.4520550000000 1.0
C      1  0.4414730000000  0.5479450000000  0.5072250000000 1.0
C      1  0.5585270000000  0.5479450000000  0.4927750000000 1.0
C      1  0.4414730000000  0.4520550000000  0.4927750000000 1.0
C      1  0.5479450000000  0.4927750000000  0.5585270000000 1.0
C      1  0.4520550000000  0.4927750000000  0.4414730000000 1.0
C      1  0.5479450000000  0.5072250000000  0.4414730000000 1.0
C      1  0.4927750000000  0.4414730000000  0.4520550000000 1.0
C      1  0.5072250000000  0.4414730000000  0.5479450000000 1.0
C      1  0.4927750000000  0.5585270000000  0.5479450000000 1.0
C      1  0.5585270000000  0.4520550000000  0.4927750000000 1.0
C      1  0.4520550000000  0.5072250000000  0.4414730000000 1.0
C      1  0.5072250000000  0.5585270000000  0.5479450000000 1.0
C      1  0.4414730000000  0.5479450000000  0.4927750000000 1.0
C      1  0.5585270000000  0.5479450000000  0.5072250000000 1.0
C      1  0.4414730000000  0.4520550000000  0.5072250000000 1.0
C      1  0.5479450000000  0.4927750000000  0.4414730000000 1.0
C      1  0.4520550000000  0.4927750000000  0.5585270000000 1.0
C      1  0.5479450000000  0.5072250000000  0.5585270000000 1.0
C      1  0.4927750000000  0.4414730000000  0.5479450000000 1.0
C      1  0.5072250000000  0.4414730000000  0.4520550000000 1.0
C      1  0.4927750000000  0.5585270000000  0.4520550000000 1.0
C      1  0.4719620000000  0.5470900000000  0.4684820000000 1.0
C      1  0.5470900000000  0.4684820000000  0.4719620000000 1.0
C      1  0.4684820000000  0.4719620000000  0.5470900000000 1.0
C      1  0.5280380000000  0.4529100000000  0.4684820000000 1.0
C      1  0.4719620000000  0.4529100000000  0.5315180000000 1.0
C      1  0.5280380000000  0.5470900000000  0.5315180000000 1.0
C      1  0.4529100000000  0.5315180000000  0.4719620000000 1.0
C      1  0.5470900000000  0.5315180000000  0.5280380000000 1.0
C      1  0.4529100000000  0.4684820000000  0.5280380000000 1.0
C      1  0.5315180000000  0.5280380000000  0.5470900000000 1.0
C      1  0.4684820000000  0.5280380000000  0.4529100000000 1.0
C      1  0.5315180000000  0.4719620000000  0.4529100000000 1.0
C      1  0.4719620000000  0.5470900000000  0.5315180000000 1.0
C      1  0.5470900000000  0.4684820000000  0.5280380000000 1.0
C      1  0.4684820000000  0.4719620000000  0.4529100000000 1.0
C      1  0.5280380000000  0.4529100000000  0.5315180000000 1.0
C      1  0.4719620000000  0.4529100000000  0.4684820000000 1.0
C      1  0.5280380000000  0.5470900000000  0.4684820000000 1.0
C      1  0.4529100000000  0.5315180000000  0.5280380000000 1.0
C      1  0.5470900000000  0.5315180000000  0.4719620000000 1.0
C      1  0.4529100000000  0.4684820000000  0.4719620000000 1.0
C      1  0.5315180000000  0.5280380000000  0.4529100000000 1.0
C      1  0.4684820000000  0.5280380000000  0.5470900000000 1.0
C      1  0.5315180000000  0.4719620000000  0.5470900000000 1.0
C      1  0.5178330000000  0.4614570000000  0.4769510000000 1.0
C      1  0.4614570000000  0.4769510000000  0.5178330000000 1.0
C      1  0.4769510000000  0.5178330000000  0.4614570000000 1.0
C      1  0.4821670000000  0.5385430000000  0.4769510000000 1.0
C      1  0.5178330000000  0.5385430000000  0.5230490000000 1.0
C      1  0.4821670000000  0.4614570000000  0.5230490000000 1.0
C      1  0.5385430000000  0.5230490000000  0.5178330000000 1.0
C      1  0.4614570000000  0.5230490000000  0.4821670000000 1.0
C      1  0.5385430000000  0.4769510000000  0.4821670000000 1.0
C      1  0.5230490000000  0.4821670000000  0.4614570000000 1.0
C      1  0.4769510000000  0.4821670000000  0.5385430000000 1.0
C      1  0.5230490000000  0.5178330000000  0.5385430000000 1.0
C      1  0.5178330000000  0.4614570000000  0.5230490000000 1.0
C      1  0.4614570000000  0.4769510000000  0.4821670000000 1.0
C      1  0.4769510000000  0.5178330000000  0.5385430000000 1.0
C      1  0.4821670000000  0.5385430000000  0.5230490000000 1.0
C      1  0.5178330000000  0.5385430000000  0.4769510000000 1.0
C      1  0.4821670000000  0.4614570000000  0.4769510000000 1.0
C      1  0.5385430000000  0.5230490000000  0.4821670000000 1.0
C      1  0.4614570000000  0.5230490000000  0.5178330000000 1.0
C      1  0.5385430000000  0.4769510000000  0.5178330000000 1.0
C      1  0.5230490000000  0.4821670000000  0.5385430000000 1.0
C      1  0.4769510000000  0.4821670000000  0.4614570000000 1.0
C      1  0.5230490000000  0.5178330000000  0.4614570000000 1.0
C      1  0.4771530000000  0.4393900000000  0.5302080000000 1.0
C      1  0.4393900000000  0.5302080000000  0.4771530000000 1.0
C      1  0.5302080000000  0.4771530000000  0.4393900000000 1.0
C      1  0.5228470000000  0.5606100000000  0.5302080000000 1.0
C      1  0.4771530000000  0.5606100000000  0.4697920000000 1.0
C      1  0.5228470000000  0.4393900000000  0.4697920000000 1.0
C      1  0.5606100000000  0.4697920000000  0.4771530000000 1.0
C      1  0.4393900000000  0.4697920000000  0.5228470000000 1.0
C      1  0.5606100000000  0.5302080000000  0.5228470000000 1.0
C      1  0.4697920000000  0.5228470000000  0.4393900000000 1.0
C      1  0.5302080000000  0.5228470000000  0.5606100000000 1.0
C      1  0.4697920000000  0.4771530000000  0.5606100000000 1.0
C      1  0.4771530000000  0.4393900000000  0.4697920000000 1.0
C      1  0.4393900000000  0.5302080000000  0.5228470000000 1.0
C      1  0.5302080000000  0.4771530000000  0.5606100000000 1.0
C      1  0.5228470000000  0.5606100000000  0.4697920000000 1.0
C      1  0.4771530000000  0.5606100000000  0.5302080000000 1.0
C      1  0.5228470000000  0.4393900000000  0.5302080000000 1.0
C      1  0.5606100000000  0.4697920000000  0.5228470000000 1.0
C      1  0.4393900000000  0.4697920000000  0.4771530000000 1.0
C      1  0.5606100000000  0.5302080000000  0.4771530000000 1.0
C      1  0.4697920000000  0.5228470000000  0.5606100000000 1.0
C      1  0.5302080000000  0.5228470000000  0.4393900000000 1.0
C      1  0.4697920000000  0.4771530000000  0.4393900000000 1.0
C      1  0.5069610000000  0.5487760000000  0.4821620000000 1.0
C      1  0.5487760000000  0.4821620000000  0.5069610000000 1.0
C      1  0.4821620000000  0.5069610000000  0.5487760000000 1.0
C      1  0.4930390000000  0.4512240000000  0.4821620000000 1.0
C      1  0.5069610000000  0.4512240000000  0.5178380000000 1.0
C      1  0.4930390000000  0.5487760000000  0.5178380000000 1.0
C      1  0.4512240000000  0.5178380000000  0.5069610000000 1.0
C      1  0.5487760000000  0.5178380000000  0.4930390000000 1.0
C      1  0.4512240000000  0.4821620000000  0.4930390000000 1.0
C      1  0.5178380000000  0.4930390000000  0.5487760000000 1.0
C      1  0.4821620000000  0.4930390000000  0.4512240000000 1.0
C      1  0.5178380000000  0.5069610000000  0.4512240000000 1.0
C      1  0.5069610000000  0.5487760000000  0.5178380000000 1.0
C      1  0.5487760000000  0.4821620000000  0.4930390000000 1.0
C      1  0.4821620000000  0.5069610000000  0.4512240000000 1.0
C      1  0.4930390000000  0.4512240000000  0.5178380000000 1.0
C      1  0.5069610000000  0.4512240000000  0.4821620000000 1.0
C      1  0.4930390000000  0.5487760000000  0.4821620000000 1.0
C      1  0.4512240000000  0.5178380000000  0.4930390000000 1.0
C      1  0.5487760000000  0.5178380000000  0.5069610000000 1.0
C      1  0.4512240000000  0.4821620000000  0.5069610000000 1.0
C      1  0.5178380000000  0.4930390000000  0.4512240000000 1.0
C      1  0.4821620000000  0.4930390000000  0.5487760000000 1.0
C      1  0.5178380000000  0.5069610000000  0.5487760000000 1.0
C      1  0.5069860000000  0.5768200000000  0.4692290000000 1.0
C      1  0.5768200000000  0.4692290000000  0.5069860000000 1.0
C      1  0.4692290000000  0.5069860000000  0.5768200000000 1.0
C      1  0.4930140000000  0.4231800000000  0.4692290000000 1.0
C      1  0.5069860000000  0.4231800000000  0.5307710000000 1.0
C      1  0.4930140000000  0.5768200000000  0.5307710000000 1.0
C      1  0.4231800000000  0.5307710000000  0.5069860000000 1.0
C      1  0.5768200000000  0.5307710000000  0.4930140000000 1.0
C      1  0.4231800000000  0.4692290000000  0.4930140000000 1.0
C      1  0.5307710000000  0.4930140000000  0.5768200000000 1.0
C      1  0.4692290000000  0.4930140000000  0.4231800000000 1.0
C      1  0.5307710000000  0.5069860000000  0.4231800000000 1.0
C      1  0.5069860000000  0.5768200000000  0.5307710000000 1.0
C      1  0.5768200000000  0.4692290000000  0.4930140000000 1.0
C      1  0.4692290000000  0.5069860000000  0.4231800000000 1.0
C      1  0.4930140000000  0.4231800000000  0.5307710000000 1.0
C      1  0.5069860000000  0.4231800000000  0.4692290000000 1.0
C      1  0.4930140000000  0.5768200000000  0.4692290000000 1.0
C      1  0.4231800000000  0.5307710000000  0.4930140000000 1.0
C      1  0.5768200000000  0.5307710000000  0.5069860000000 1.0
C      1  0.4231800000000  0.4692290000000  0.5069860000000 1.0
C      1  0.5307710000000  0.4930140000000  0.4231800000000 1.0
C      1  0.4692290000000  0.4930140000000  0.5768200000000 1.0
C      1  0.5307710000000  0.5069860000000  0.5768200000000 1.0
C      1  0.4161850000000  0.5072610000000  0.4926070000000 1.0
C      1  0.5072610000000  0.4926070000000  0.4161850000000 1.0
C      1  0.4926070000000  0.4161850000000  0.5072610000000 1.0
C      1  0.5838150000000  0.4927390000000  0.4926070000000 1.0
C      1  0.4161850000000  0.4927390000000  0.5073930000000 1.0
C      1  0.5838150000000  0.5072610000000  0.5073930000000 1.0
C      1  0.4927390000000  0.5073930000000  0.4161850000000 1.0
C      1  0.5072610000000  0.5073930000000  0.5838150000000 1.0
C      1  0.4927390000000  0.4926070000000  0.5838150000000 1.0
C      1  0.5073930000000  0.5838150000000  0.5072610000000 1.0
C      1  0.4926070000000  0.5838150000000  0.4927390000000 1.0
C      1  0.5073930000000  0.4161850000000  0.4927390000000 1.0
C      1  0.4161850000000  0.5072610000000  0.5073930000000 1.0
C      1  0.5072610000000  0.4926070000000  0.5838150000000 1.0
C      1  0.4926070000000  0.4161850000000  0.4927390000000 1.0
C      1  0.5838150000000  0.4927390000000  0.5073930000000 1.0
C      1  0.4161850000000  0.4927390000000  0.4926070000000 1.0
C      1  0.5838150000000  0.5072610000000  0.4926070000000 1.0
C      1  0.4927390000000  0.5073930000000  0.5838150000000 1.0
C      1  0.5072610000000  0.5073930000000  0.4161850000000 1.0
C      1  0.4927390000000  0.4926070000000  0.4161850000000 1.0
C      1  0.5073930000000  0.5838150000000  0.4927390000000 1.0
C      1  0.4926070000000  0.5838150000000  0.5072610000000 1.0
C      1  0.5073930000000  0.4161850000000  0.5072610000000 1.0
C      1  0.4807030000000  0.4929380000000  0.4829940000000 1.0
C      1  0.4929380000000  0.4829940000000  0.4807030000000 1.0
C      1  0.4829940000000  0.4807030000000  0.4929380000000 1.0
C      1  0.5192970000000  0.5070620000000  0.4829940000000 1.0
C      1  0.4807030000000  0.5070620000000  0.5170060000000 1.0
C      1  0.5192970000000  0.4929380000000  0.5170060000000 1.0
C      1  0.5070620000000  0.5170060000000  0.4807030000000 1.0
C      1  0.4929380000000  0.5170060000000  0.5192970000000 1.0
C      1  0.5070620000000  0.4829940000000  0.5192970000000 1.0
C      1  0.5170060000000  0.5192970000000  0.4929380000000 1.0
C      1  0.4829940000000  0.5192970000000  0.5070620000000 1.0
C      1  0.5170060000000  0.4807030000000  0.5070620000000 1.0
C      1  0.4807030000000  0.4929380000000  0.5170060000000 1.0
C      1  0.4929380000000  0.4829940000000  0.5192970000000 1.0
C      1  0.4829940000000  0.4807030000000  0.5070620000000 1.0
C      1  0.5192970000000  0.5070620000000  0.5170060000000 1.0
C      1  0.4807030000000  0.5070620000000  0.4829940000000 1.0
C      1  0.5192970000000  0.4929380000000  0.4829940000000 1.0
C      1  0.5070620000000  0.5170060000000  0.5192970000000 1.0
C      1  0.4929380000000  0.5170060000000  0.4807030000000 1.0
C      1  0.5070620000000  0.4829940000000  0.4807030000000 1.0
C      1  0.5170060000000  0.5192970000000  0.5070620000000 1.0
C      1  0.4829940000000  0.5192970000000  0.4929380000000 1.0
C      1  0.5170060000000  0.4807030000000  0.4929380000000 1.0
C      1  0.5432970000000  0.4537730000000  0.5277130000000 1.0
C      1  0.4537730000000  0.5277130000000  0.5432970000000 1.0
C      1  0.5277130000000  0.5432970000000  0.4537730000000 1.0
C      1  0.4567030000000  0.5462270000000  0.5277130000000 1.0
C      1  0.5432970000000  0.5462270000000  0.4722870000000 1.0
C      1  0.4567030000000  0.4537730000000  0.4722870000000 1.0
C      1  0.5462270000000  0.4722870000000  0.5432970000000 1.0
C      1  0.4537730000000  0.4722870000000  0.4567030000000 1.0
C      1  0.5462270000000  0.5277130000000  0.4567030000000 1.0
C      1  0.4722870000000  0.4567030000000  0.4537730000000 1.0
C      1  0.5277130000000  0.4567030000000  0.5462270000000 1.0
C      1  0.4722870000000  0.5432970000000  0.5462270000000 1.0
C      1  0.5432970000000  0.4537730000000  0.4722870000000 1.0
C      1  0.4537730000000  0.5277130000000  0.4567030000000 1.0
C      1  0.5277130000000  0.5432970000000  0.5462270000000 1.0
C      1  0.4567030000000  0.5462270000000  0.4722870000000 1.0
C      1  0.5432970000000  0.5462270000000  0.5277130000000 1.0
C      1  0.4567030000000  0.4537730000000  0.5277130000000 1.0
C      1  0.5462270000000  0.4722870000000  0.4567030000000 1.0
C      1  0.4537730000000  0.4722870000000  0.5432970000000 1.0
C      1  0.5462270000000  0.5277130000000  0.5432970000000 1.0
C      1  0.4722870000000  0.4567030000000  0.5462270000000 1.0
C      1  0.5277130000000  0.4567030000000  0.4537730000000 1.0
C      1  0.4722870000000  0.5432970000000  0.4537730000000 1.0
C      1  0.4697410000000  0.4875920000000  0.5259980000000 1.0
C      1  0.4875920000000  0.5259980000000  0.4697410000000 1.0
C      1  0.5259980000000  0.4697410000000  0.4875920000000 1.0
C      1  0.5302590000000  0.5124080000000  0.5259980000000 1.0
C      1  0.4697410000000  0.5124080000000  0.4740020000000 1.0
C      1  0.5302590000000  0.4875920000000  0.4740020000000 1.0
C      1  0.5124080000000  0.4740020000000  0.4697410000000 1.0
C      1  0.4875920000000  0.4740020000000  0.5302590000000 1.0
C      1  0.5124080000000  0.5259980000000  0.5302590000000 1.0
C      1  0.4740020000000  0.5302590000000  0.4875920000000 1.0
C      1  0.5259980000000  0.5302590000000  0.5124080000000 1.0
C      1  0.4740020000000  0.4697410000000  0.5124080000000 1.0
C      1  0.4697410000000  0.4875920000000  0.4740020000000 1.0
C      1  0.4875920000000  0.5259980000000  0.5302590000000 1.0
C      1  0.5259980000000  0.4697410000000  0.5124080000000 1.0
C      1  0.5302590000000  0.5124080000000  0.4740020000000 1.0
C      1  0.4697410000000  0.5124080000000  0.5259980000000 1.0
C      1  0.5302590000000  0.4875920000000  0.5259980000000 1.0
C      1  0.5124080000000  0.4740020000000  0.5302590000000 1.0
C      1  0.4875920000000  0.4740020000000  0.4697410000000 1.0
C      1  0.5124080000000  0.5259980000000  0.4697410000000 1.0
C      1  0.4740020000000  0.5302590000000  0.5124080000000 1.0
C      1  0.5259980000000  0.5302590000000  0.4875920000000 1.0
C      1  0.4740020000000  0.4697410000000  0.4875920000000 1.0
C      1  0.5513600000000  0.4590060000000  0.4503530000000 1.0
C      1  0.4590060000000  0.4503530000000  0.5513600000000 1.0
C      1  0.4503530000000  0.5513600000000  0.4590060000000 1.0
C      1  0.4486400000000  0.5409940000000  0.4503530000000 1.0
C      1  0.5513600000000  0.5409940000000  0.5496470000000 1.0
C      1  0.4486400000000  0.4590060000000  0.5496470000000 1.0
C      1  0.5409940000000  0.5496470000000  0.5513600000000 1.0
C      1  0.4590060000000  0.5496470000000  0.4486400000000 1.0
C      1  0.5409940000000  0.4503530000000  0.4486400000000 1.0
C      1  0.5496470000000  0.4486400000000  0.4590060000000 1.0
C      1  0.4503530000000  0.4486400000000  0.5409940000000 1.0
C      1  0.5496470000000  0.5513600000000  0.5409940000000 1.0
C      1  0.5513600000000  0.4590060000000  0.5496470000000 1.0
C      1  0.4590060000000  0.4503530000000  0.4486400000000 1.0
C      1  0.4503530000000  0.5513600000000  0.5409940000000 1.0
C      1  0.4486400000000  0.5409940000000  0.5496470000000 1.0
C      1  0.5513600000000  0.5409940000000  0.4503530000000 1.0
C      1  0.4486400000000  0.4590060000000  0.4503530000000 1.0
C      1  0.5409940000000  0.5496470000000  0.4486400000000 1.0
C      1  0.4590060000000  0.5496470000000  0.5513600000000 1.0
C      1  0.5409940000000  0.4503530000000  0.5513600000000 1.0
C      1  0.5496470000000  0.4486400000000  0.5409940000000 1.0
C      1  0.4503530000000  0.4486400000000  0.4590060000000 1.0
C      1  0.5496470000000  0.5513600000000  0.4590060000000 1.0
C      1  0.5616400000000  0.5162670000000  0.4832530000000 1.0
C      1  0.5162670000000  0.4832530000000  0.5616400000000 1.0
C      1  0.4832530000000  0.5616400000000  0.5162670000000 1.0
C      1  0.4383600000000  0.4837330000000  0.4832530000000 1.0
C      1  0.5616400000000  0.4837330000000  0.5167470000000 1.0
C      1  0.4383600000000  0.5162670000000  0.5167470000000 1.0
C      1  0.4837330000000  0.5167470000000  0.5616400000000 1.0
C      1  0.5162670000000  0.5167470000000  0.4383600000000 1.0
C      1  0.4837330000000  0.4832530000000  0.4383600000000 1.0
C      1  0.5167470000000  0.4383600000000  0.5162670000000 1.0
C      1  0.4832530000000  0.4383600000000  0.4837330000000 1.0
C      1  0.5167470000000  0.5616400000000  0.4837330000000 1.0
C      1  0.5616400000000  0.5162670000000  0.5167470000000 1.0
C      1  0.5162670000000  0.4832530000000  0.4383600000000 1.0
C      1  0.4832530000000  0.5616400000000  0.4837330000000 1.0
C      1  0.4383600000000  0.4837330000000  0.5167470000000 1.0
C      1  0.5616400000000  0.4837330000000  0.4832530000000 1.0
C      1  0.4383600000000  0.5162670000000  0.4832530000000 1.0
C      1  0.4837330000000  0.5167470000000  0.4383600000000 1.0
C      1  0.5162670000000  0.5167470000000  0.5616400000000 1.0
C      1  0.4837330000000  0.4832530000000  0.5616400000000 1.0
C      1  0.5167470000000  0.4383600000000  0.4837330000000 1.0
C      1  0.4832530000000  0.4383600000000  0.5162670000000 1.0
C      1  0.5167470000000  0.5616400000000  0.5162670000000 1.0
C      1  0.4331940000000  0.4614550000000  0.5136460000000 1.0
C      1  0.4614550000000  0.5136460000000  0.4331940000000 1.0
C      1  0.5136460000000  0.4331940000000  0.4614550000000 1.0
C      1  0.5668060000000  0.5385450000000  0.5136460000000 1.0
C      1  0.4331940000000  0.5385450000000  0.4863540000000 1.0
C      1  0.5668060000000  0.4614550000000  0.4863540000000 1.0
C      1  0.5385450000000  0.4863540000000  0.4331940000000 1.0
C      1  0.4614550000000  0.4863540000000  0.5668060000000 1.0
C      1  0.5385450000000  0.5136460000000  0.5668060000000 1.0
C      1  0.4863540000000  0.5668060000000  0.4614550000000 1.0
C      1  0.5136460000000  0.5668060000000  0.5385450000000 1.0
C      1  0.4863540000000  0.4331940000000  0.5385450000000 1.0
C      1  0.4331940000000  0.4614550000000  0.4863540000000 1.0
C      1  0.4614550000000  0.5136460000000  0.5668060000000 1.0
C      1  0.5136460000000  0.4331940000000  0.5385450000000 1.0
C      1  0.5668060000000  0.5385450000000  0.4863540000000 1.0
C      1  0.4331940000000  0.5385450000000  0.5136460000000 1.0
C      1  0.5668060000000  0.4614550000000  0.5136460000000 1.0
C      1  0.5385450000000  0.4863540000000  0.5668060000000 1.0
C      1  0.4614550000000  0.4863540000000  0.4331940000000 1.0
C      1  0.5385450000000  0.5136460000000  0.4331940000000 1.0
C      1  0.4863540000000  0.5668060000000  0.5385450000000 1.0
C      1  0.5136460000000  0.5668060000000  0.4614550000000 1.0
C      1  0.4863540000000  0.4331940000000  0.4614550000000 1.0
C      1  0.4362040000000  0.4895960000000  0.4589910000000 1.0
C      1  0.4895960000000  0.4589910000000  0.4362040000000 1.0
C      1  0.4589910000000  0.4362040000000  0.4895960000000 1.0
C      1  0.5637960000000  0.5104040000000  0.4589910000000 1.0
C      1  0.4362040000000  0.5104040000000  0.5410090000000 1.0
C      1  0.5637960000000  0.4895960000000  0.5410090000000 1.0
C      1  0.5104040000000  0.5410090000000  0.4362040000000 1.0
C      1  0.4895960000000  0.5410090000000  0.5637960000000 1.0
C      1  0.5104040000000  0.4589910000000  0.5637960000000 1.0
C      1  0.5410090000000  0.5637960000000  0.4895960000000 1.0
C      1  0.4589910000000  0.5637960000000  0.5104040000000 1.0
C      1  0.5410090000000  0.4362040000000  0.5104040000000 1.0
C      1  0.4362040000000  0.4895960000000  0.5410090000000 1.0
C      1  0.4895960000000  0.4589910000000  0.5637960000000 1.0
C      1  0.4589910000000  0.4362040000000  0.5104040000000 1.0
C      1  0.5637960000000  0.5104040000000  0.5410090000000 1.0
C      1  0.4362040000000  0.5104040000000  0.4589910000000 1.0
C      1  0.5637960000000  0.4895960000000  0.4589910000000 1.0
C      1  0.5104040000000  0.5410090000000  0.5637960000000 1.0
C      1  0.4895960000000  0.5410090000000  0.4362040000000 1.0
C      1  0.5104040000000  0.4589910000000  0.4362040000000 1.0
C      1  0.5410090000000  0.5637960000000  0.5104040000000 1.0
C      1  0.4589910000000  0.5637960000000  0.4895960000000 1.0
C      1  0.5410090000000  0.4362040000000  0.4895960000000 1.0
C      1  0.4526130000000  0.5712460000000  0.5000000000000 1.0
C      1  0.5712460000000  0.5000000000000  0.4526130000000 1.0
C      1  0.5000000000000  0.4526130000000  0.5712460000000 1.0
C      1  0.5473870000000  0.4287540000000  0.5000000000000 1.0
C      1  0.4526130000000  0.4287540000000  0.5000000000000 1.0
C      1  0.5473870000000  0.5712460000000  0.5000000000000 1.0
C      1  0.4287540000000  0.5000000000000  0.4526130000000 1.0
C      1  0.5712460000000  0.5000000000000  0.5473870000000 1.0
C      1  0.4287540000000  0.5000000000000  0.5473870000000 1.0
C      1  0.5000000000000  0.5473870000000  0.5712460000000 1.0
C      1  0.5000000000000  0.5473870000000  0.4287540000000 1.0
C      1  0.5000000000000  0.4526130000000  0.4287540000000 1.0
END
