TITL C-1892085-2338-68 -1.41236051832385e-07 1000000 -4094.59208124011 0 0 580 (C1) n - 1
REM
REM in /nfs/bkarasulu/CARBON/AIRSS/Generating-Clusters/GAP-ML-2020/Higher-Symm/Selected-Sizes/TryA-Only_Ih-Symm/Larger-Clusters
REM
REM
REM
REM
REM
REM ./C.cell (2cf5181f0f1d4d5b12b972d32ad12063)
REM
REM compiler GCC version 9.2.1 20190827 (Red Hat 9.2.1-1)
REM options -cpp -mtune=generic -march=x86-64 -g -O0 -fpre-include=/usr/include/finclude/math-vector-fortran.h
REM seed 9868339 916413497 -1674373997 -585966455 -1574745402 136399792 2113150477 -1135240669 1897952033 -1658417618 136327032 260997289 -1767119093 -982664938 -348718509 1743304105 -93819943 1745349314 -1230820855 -23576523 -253662189 463989277 1998411008 -2018419958 413537806 -450009337 -1935703943 -97577814 11308829 1645072158 -1571203687 365273444 1208885410
REM
CELL 1.54180  100.00000  100.00000  100.00000   90.00000   90.00000   90.00000
LATT -1
SFAC C  
C      1  0.4999650000000  0.4603940000000  0.5208580000000 1.0
C      1  0.4600690000000  0.5207300000000  0.4999060000000 1.0
C      1  0.5204790000000  0.4991200000000  0.4603940000000 1.0
C      1  0.5001570000000  0.4598770000000  0.4793600000000 1.0
C      1  0.5003760000000  0.5400900000000  0.5215920000000 1.0
C      1  0.4998090000000  0.5396490000000  0.4800870000000 1.0
C      1  0.5393480000000  0.5204730000000  0.5003480000000 1.0
C      1  0.5397810000000  0.4787140000000  0.4993040000000 1.0
C      1  0.4604170000000  0.4791510000000  0.5000140000000 1.0
C      1  0.4791040000000  0.4999700000000  0.5396480000000 1.0
C      1  0.4789680000000  0.5006630000000  0.4603570000000 1.0
C      1  0.5205050000000  0.5002680000000  0.5397830000000 1.0
C      1  0.5211280000000  0.4598970000000  0.4994380000000 1.0
C      1  0.4996130000000  0.5206580000000  0.4606690000000 1.0
C      1  0.4603700000000  0.4999820000000  0.5201610000000 1.0
C      1  0.4798580000000  0.4603770000000  0.5000320000000 1.0
C      1  0.5202580000000  0.5396360000000  0.5003420000000 1.0
C      1  0.4789730000000  0.5399660000000  0.5000540000000 1.0
C      1  0.5004780000000  0.5213010000000  0.5400770000000 1.0
C      1  0.4999660000000  0.4798720000000  0.5395770000000 1.0
C      1  0.5002660000000  0.4788900000000  0.4601650000000 1.0
C      1  0.5395210000000  0.4991500000000  0.4789920000000 1.0
C      1  0.4601810000000  0.5006240000000  0.4789180000000 1.0
C      1  0.5395190000000  0.5003050000000  0.5205480000000 1.0
C      1  0.5143690000000  0.5501360000000  0.5615170000000 1.0
C      1  0.5491080000000  0.5604480000000  0.5139070000000 1.0
C      1  0.5604820000000  0.5135650000000  0.5495120000000 1.0
C      1  0.4868000000000  0.5498760000000  0.4400570000000 1.0
C      1  0.4864860000000  0.4511490000000  0.5605730000000 1.0
C      1  0.5128130000000  0.4493630000000  0.4392870000000 1.0
C      1  0.4499520000000  0.5607430000000  0.4868540000000 1.0
C      1  0.4511650000000  0.4394520000000  0.5135750000000 1.0
C      1  0.5500500000000  0.4386440000000  0.4854880000000 1.0
C      1  0.4391270000000  0.5147970000000  0.4499170000000 1.0
C      1  0.4394210000000  0.4863590000000  0.5488140000000 1.0
C      1  0.5603860000000  0.4853320000000  0.4495830000000 1.0
C      1  0.5601370000000  0.5496690000000  0.5135720000000 1.0
C      1  0.5139800000000  0.5611470000000  0.5508870000000 1.0
C      1  0.5497170000000  0.5135250000000  0.5605160000000 1.0
C      1  0.4391010000000  0.5498810000000  0.4867240000000 1.0
C      1  0.5610040000000  0.4494090000000  0.4857020000000 1.0
C      1  0.4399830000000  0.4499870000000  0.5130490000000 1.0
C      1  0.4865480000000  0.5605670000000  0.4511920000000 1.0
C      1  0.5131260000000  0.4386670000000  0.4503590000000 1.0
C      1  0.4869020000000  0.4399710000000  0.5500300000000 1.0
C      1  0.4499690000000  0.5146580000000  0.4390530000000 1.0
C      1  0.5492640000000  0.4849190000000  0.4389450000000 1.0
C      1  0.4499660000000  0.4867980000000  0.5600080000000 1.0
C      1  0.5197410000000  0.4204420000000  0.5020250000000 1.0
C      1  0.4204340000000  0.5010560000000  0.5179550000000 1.0
C      1  0.5022070000000  0.5189540000000  0.4217030000000 1.0
C      1  0.4819330000000  0.4204460000000  0.4989700000000 1.0
C      1  0.4801140000000  0.5789460000000  0.5032360000000 1.0
C      1  0.5181040000000  0.5797920000000  0.4994040000000 1.0
C      1  0.5783920000000  0.5014680000000  0.4805060000000 1.0
C      1  0.5783620000000  0.4978380000000  0.5187400000000 1.0
C      1  0.4206800000000  0.4981790000000  0.4802030000000 1.0
C      1  0.4980060000000  0.5196430000000  0.5794730000000 1.0
C      1  0.4974490000000  0.4805510000000  0.4213030000000 1.0
C      1  0.5011950000000  0.4820060000000  0.5794720000000 1.0
C      1  0.5032350000000  0.4213180000000  0.5198240000000 1.0
C      1  0.5185770000000  0.5009280000000  0.4211360000000 1.0
C      1  0.4199760000000  0.5183280000000  0.5010360000000 1.0
C      1  0.4988220000000  0.4197860000000  0.4817530000000 1.0
C      1  0.5011130000000  0.5796520000000  0.4822220000000 1.0
C      1  0.4973590000000  0.5790830000000  0.5203040000000 1.0
C      1  0.4802070000000  0.5031060000000  0.5787700000000 1.0
C      1  0.5183950000000  0.4989980000000  0.5799850000000 1.0
C      1  0.4807630000000  0.4982880000000  0.4216180000000 1.0
C      1  0.5781890000000  0.5188100000000  0.4976630000000 1.0
C      1  0.4213380000000  0.4802820000000  0.4966860000000 1.0
C      1  0.5785670000000  0.4806340000000  0.5015000000000 1.0
C      1  0.5300700000000  0.4927010000000  0.4217130000000 1.0
C      1  0.4953290000000  0.4225130000000  0.5313980000000 1.0
C      1  0.4216580000000  0.5302850000000  0.4937410000000 1.0
C      1  0.4686150000000  0.4952180000000  0.5775410000000 1.0
C      1  0.4691810000000  0.5063280000000  0.4223160000000 1.0
C      1  0.5303180000000  0.5063530000000  0.5782720000000 1.0
C      1  0.5061420000000  0.4212740000000  0.4697970000000 1.0
C      1  0.5054340000000  0.5780500000000  0.5318400000000 1.0
C      1  0.4938850000000  0.5779080000000  0.4703240000000 1.0
C      1  0.5773940000000  0.5305860000000  0.5054310000000 1.0
C      1  0.5778320000000  0.4688570000000  0.4937070000000 1.0
C      1  0.4225290000000  0.4686730000000  0.5045650000000 1.0
C      1  0.4221910000000  0.4936770000000  0.5297420000000 1.0
C      1  0.5310910000000  0.4212730000000  0.4936280000000 1.0
C      1  0.4947220000000  0.5308630000000  0.4226310000000 1.0
C      1  0.5775550000000  0.4936120000000  0.4687730000000 1.0
C      1  0.4216530000000  0.5066090000000  0.4688740000000 1.0
C      1  0.5776420000000  0.5056450000000  0.5304940000000 1.0
C      1  0.4701370000000  0.4222500000000  0.5062960000000 1.0
C      1  0.5299250000000  0.5780810000000  0.5068220000000 1.0
C      1  0.4685770000000  0.5779560000000  0.4951980000000 1.0
C      1  0.5063810000000  0.5310070000000  0.5786290000000 1.0
C      1  0.4938580000000  0.4702010000000  0.5776980000000 1.0
C      1  0.5050050000000  0.4686050000000  0.4220580000000 1.0
C      1  0.5297250000000  0.5201290000000  0.5105180000000 1.0
C      1  0.5201060000000  0.5105710000000  0.5303010000000 1.0
C      1  0.5105380000000  0.5304560000000  0.5206680000000 1.0
C      1  0.4696410000000  0.5204290000000  0.4896770000000 1.0
C      1  0.4700210000000  0.4798120000000  0.5102860000000 1.0
C      1  0.5300890000000  0.4793220000000  0.4892930000000 1.0
C      1  0.4796420000000  0.5107670000000  0.4700540000000 1.0
C      1  0.4797700000000  0.4897280000000  0.5299960000000 1.0
C      1  0.5199500000000  0.4890250000000  0.4699500000000 1.0
C      1  0.4894690000000  0.5301830000000  0.4802870000000 1.0
C      1  0.4896910000000  0.4700180000000  0.5202120000000 1.0
C      1  0.5104250000000  0.4693650000000  0.4797060000000 1.0
C      1  0.5106270000000  0.5205270000000  0.5304980000000 1.0
C      1  0.5298300000000  0.5104430000000  0.5202350000000 1.0
C      1  0.5199500000000  0.5301750000000  0.5106580000000 1.0
C      1  0.4894710000000  0.5203230000000  0.4702970000000 1.0
C      1  0.5103320000000  0.4792850000000  0.4698640000000 1.0
C      1  0.4896170000000  0.4800630000000  0.5300400000000 1.0
C      1  0.4696990000000  0.5108180000000  0.4798410000000 1.0
C      1  0.5299220000000  0.4890730000000  0.4797090000000 1.0
C      1  0.4699400000000  0.4896550000000  0.5199610000000 1.0
C      1  0.4795680000000  0.5303150000000  0.4898480000000 1.0
C      1  0.5202660000000  0.4694060000000  0.4892880000000 1.0
C      1  0.4800320000000  0.4699500000000  0.5103660000000 1.0
C      1  0.4621180000000  0.5290520000000  0.4210010000000 1.0
C      1  0.5279950000000  0.4204010000000  0.4614530000000 1.0
C      1  0.4211880000000  0.4615140000000  0.5272920000000 1.0
C      1  0.5387370000000  0.5280230000000  0.5790430000000 1.0
C      1  0.5377270000000  0.4704350000000  0.4208830000000 1.0
C      1  0.4615070000000  0.4725470000000  0.5787390000000 1.0
C      1  0.4726060000000  0.4212400000000  0.5385020000000 1.0
C      1  0.4719370000000  0.5789250000000  0.4625140000000 1.0
C      1  0.5282570000000  0.5793890000000  0.5386960000000 1.0
C      1  0.5792170000000  0.4612330000000  0.4712130000000 1.0
C      1  0.5788750000000  0.5382000000000  0.5279030000000 1.0
C      1  0.4208680000000  0.5387490000000  0.4719310000000 1.0
C      1  0.4209390000000  0.5290130000000  0.4615620000000 1.0
C      1  0.4626030000000  0.4214460000000  0.5284150000000 1.0
C      1  0.5274460000000  0.4606180000000  0.4205180000000 1.0
C      1  0.5789620000000  0.5281690000000  0.5379690000000 1.0
C      1  0.4214020000000  0.4715860000000  0.5373100000000 1.0
C      1  0.5789290000000  0.4712150000000  0.4611200000000 1.0
C      1  0.5383500000000  0.4204430000000  0.4712040000000 1.0
C      1  0.4617640000000  0.5793090000000  0.4724320000000 1.0
C      1  0.5381120000000  0.5787710000000  0.5284780000000 1.0
C      1  0.4716540000000  0.4626040000000  0.5786160000000 1.0
C      1  0.5289120000000  0.5383020000000  0.5794060000000 1.0
C      1  0.4723590000000  0.5388900000000  0.4212660000000 1.0
C      1  0.4785580000000  0.4567110000000  0.4676290000000 1.0
C      1  0.4565780000000  0.4677390000000  0.4782370000000 1.0
C      1  0.4673640000000  0.4789230000000  0.4560880000000 1.0
C      1  0.5217710000000  0.4565780000000  0.5322680000000 1.0
C      1  0.5212840000000  0.5428630000000  0.4683040000000 1.0
C      1  0.4784940000000  0.5439770000000  0.5330430000000 1.0
C      1  0.5439660000000  0.4673210000000  0.5210590000000 1.0
C      1  0.5434740000000  0.5321100000000  0.4786900000000 1.0
C      1  0.4566360000000  0.5323140000000  0.5215850000000 1.0
C      1  0.5323440000000  0.4787170000000  0.5430650000000 1.0
C      1  0.5325260000000  0.5205740000000  0.4561640000000 1.0
C      1  0.4675540000000  0.5216650000000  0.5436050000000 1.0
C      1  0.4681670000000  0.4569160000000  0.4784340000000 1.0
C      1  0.4785350000000  0.4674730000000  0.4561590000000 1.0
C      1  0.4561380000000  0.4789900000000  0.4669940000000 1.0
C      1  0.5330590000000  0.4560540000000  0.5210380000000 1.0
C      1  0.4672260000000  0.5438560000000  0.5217270000000 1.0
C      1  0.5320650000000  0.5429270000000  0.4787470000000 1.0
C      1  0.5215980000000  0.4682470000000  0.5429710000000 1.0
C      1  0.4786880000000  0.5329880000000  0.5441690000000 1.0
C      1  0.5213110000000  0.5319370000000  0.4566490000000 1.0
C      1  0.5438090000000  0.4787230000000  0.5323060000000 1.0
C      1  0.4568220000000  0.5214860000000  0.5319530000000 1.0
C      1  0.5435500000000  0.5207590000000  0.4673350000000 1.0
C      1  0.4718230000000  0.5551710000000  0.4360560000000 1.0
C      1  0.5548800000000  0.4349280000000  0.4703390000000 1.0
C      1  0.4356470000000  0.4712680000000  0.5538560000000 1.0
C      1  0.5294850000000  0.5550600000000  0.5651790000000 1.0
C      1  0.5276060000000  0.4439700000000  0.4349930000000 1.0
C      1  0.4714450000000  0.4460390000000  0.5644220000000 1.0
C      1  0.4460840000000  0.4356730000000  0.5286360000000 1.0
C      1  0.4450220000000  0.5649350000000  0.4718650000000 1.0
C      1  0.5543580000000  0.5642900000000  0.5289200000000 1.0
C      1  0.5642130000000  0.4701970000000  0.4446410000000 1.0
C      1  0.5645700000000  0.5286300000000  0.5545360000000 1.0
C      1  0.4355200000000  0.5299850000000  0.4451000000000 1.0
C      1  0.4352000000000  0.5553900000000  0.4718580000000 1.0
C      1  0.4719270000000  0.4359840000000  0.5551110000000 1.0
C      1  0.5540780000000  0.4696500000000  0.4353980000000 1.0
C      1  0.5642060000000  0.5547610000000  0.5285780000000 1.0
C      1  0.4359610000000  0.4449030000000  0.5280390000000 1.0
C      1  0.5648670000000  0.4443320000000  0.4706610000000 1.0
C      1  0.5279200000000  0.4345530000000  0.4449060000000 1.0
C      1  0.4715630000000  0.5645380000000  0.4460510000000 1.0
C      1  0.5289940000000  0.5650690000000  0.5557900000000 1.0
C      1  0.4449220000000  0.4717760000000  0.5639470000000 1.0
C      1  0.5551120000000  0.5284600000000  0.5644340000000 1.0
C      1  0.4451510000000  0.5297890000000  0.4353010000000 1.0
C      1  0.4648160000000  0.4751700000000  0.5454270000000 1.0
C      1  0.4750150000000  0.5457730000000  0.4654190000000 1.0
C      1  0.5458020000000  0.4638160000000  0.4742320000000 1.0
C      1  0.5349800000000  0.4738170000000  0.4540780000000 1.0
C      1  0.5352430000000  0.5251250000000  0.5458680000000 1.0
C      1  0.4645140000000  0.5258300000000  0.4543260000000 1.0
C      1  0.5253910000000  0.5461120000000  0.5359790000000 1.0
C      1  0.5249430000000  0.4535100000000  0.4644520000000 1.0
C      1  0.4751900000000  0.4545450000000  0.5352060000000 1.0
C      1  0.4545480000000  0.4648000000000  0.5247870000000 1.0
C      1  0.4541150000000  0.5356450000000  0.4751270000000 1.0
C      1  0.5454550000000  0.5352680000000  0.5252900000000 1.0
C      1  0.5455640000000  0.4739530000000  0.4642850000000 1.0
C      1  0.4645480000000  0.5460430000000  0.4751510000000 1.0
C      1  0.4751690000000  0.4652910000000  0.5454350000000 1.0
C      1  0.4545860000000  0.4751660000000  0.5346500000000 1.0
C      1  0.5455900000000  0.5252410000000  0.5353500000000 1.0
C      1  0.4541090000000  0.5258430000000  0.4647240000000 1.0
C      1  0.5348620000000  0.5456160000000  0.5252650000000 1.0
C      1  0.4653200000000  0.4545820000000  0.5248330000000 1.0
C      1  0.5353450000000  0.4535220000000  0.4742380000000 1.0
C      1  0.5250300000000  0.4636770000000  0.4538900000000 1.0
C      1  0.4748770000000  0.5355620000000  0.4546680000000 1.0
C      1  0.5255560000000  0.5356330000000  0.5462320000000 1.0
C      1  0.4774010000000  0.4456650000000  0.5005630000000 1.0
C      1  0.4457610000000  0.5014320000000  0.4746660000000 1.0
C      1  0.5007760000000  0.4747570000000  0.4457780000000 1.0
C      1  0.5253460000000  0.4454790000000  0.4986700000000 1.0
C      1  0.5227820000000  0.5543380000000  0.5010020000000 1.0
C      1  0.4747170000000  0.5543510000000  0.4996710000000 1.0
C      1  0.5539540000000  0.5009590000000  0.5245290000000 1.0
C      1  0.5538530000000  0.4983240000000  0.4748360000000 1.0
C      1  0.4456520000000  0.4994180000000  0.5226060000000 1.0
C      1  0.4994720000000  0.4774190000000  0.5542810000000 1.0
C      1  0.4991230000000  0.5245420000000  0.4461950000000 1.0
C      1  0.5012280000000  0.5254450000000  0.5545080000000 1.0
C      1  0.5006950000000  0.4451730000000  0.4767820000000 1.0
C      1  0.4749290000000  0.5014390000000  0.4459900000000 1.0
C      1  0.4459670000000  0.4750270000000  0.5002390000000 1.0
C      1  0.4997380000000  0.4459460000000  0.5250110000000 1.0
C      1  0.5008630000000  0.5544100000000  0.5258700000000 1.0
C      1  0.4993310000000  0.5543590000000  0.4776410000000 1.0
C      1  0.5231270000000  0.5008180000000  0.5544920000000 1.0
C      1  0.4749670000000  0.4996730000000  0.5541020000000 1.0
C      1  0.5244510000000  0.4980550000000  0.4459340000000 1.0
C      1  0.5541170000000  0.4746640000000  0.4984840000000 1.0
C      1  0.4453690000000  0.5232600000000  0.4993310000000 1.0
C      1  0.5537640000000  0.5244830000000  0.5009290000000 1.0
C      1  0.5306160000000  0.5680400000000  0.4598050000000 1.0
C      1  0.5686480000000  0.4585090000000  0.5307270000000 1.0
C      1  0.4597140000000  0.5342220000000  0.5665290000000 1.0
C      1  0.4685380000000  0.5685130000000  0.5422840000000 1.0
C      1  0.4701470000000  0.4308860000000  0.4587230000000 1.0
C      1  0.5346260000000  0.4338500000000  0.5400290000000 1.0
C      1  0.4337020000000  0.4600320000000  0.4655230000000 1.0
C      1  0.4306960000000  0.5410780000000  0.5299120000000 1.0
C      1  0.5670740000000  0.5406410000000  0.4682380000000 1.0
C      1  0.5427850000000  0.5284220000000  0.4310460000000 1.0
C      1  0.5413300000000  0.4704050000000  0.5689170000000 1.0
C      1  0.4582240000000  0.4692820000000  0.4314900000000 1.0
C      1  0.4583830000000  0.5674450000000  0.5323010000000 1.0
C      1  0.5308000000000  0.4596080000000  0.5682700000000 1.0
C      1  0.5680840000000  0.5304510000000  0.4582940000000 1.0
C      1  0.5411390000000  0.5687800000000  0.4706350000000 1.0
C      1  0.4594190000000  0.4316700000000  0.4693310000000 1.0
C      1  0.5437060000000  0.4310160000000  0.5291050000000 1.0
C      1  0.4680550000000  0.4589900000000  0.4324840000000 1.0
C      1  0.5337700000000  0.5394340000000  0.4338110000000 1.0
C      1  0.4706100000000  0.5433800000000  0.5693540000000 1.0
C      1  0.4314590000000  0.5304980000000  0.5406210000000 1.0
C      1  0.5675590000000  0.4684980000000  0.5408630000000 1.0
C      1  0.4309630000000  0.4709990000000  0.4564220000000 1.0
C      1  0.4743310000000  0.5780300000000  0.5168290000000 1.0
C      1  0.5776080000000  0.5150660000000  0.4747260000000 1.0
C      1  0.5148990000000  0.4760310000000  0.5803790000000 1.0
C      1  0.5240730000000  0.5804930000000  0.4857600000000 1.0
C      1  0.5258840000000  0.4214410000000  0.5154140000000 1.0
C      1  0.4758700000000  0.4194750000000  0.4852900000000 1.0
C      1  0.4194580000000  0.5147080000000  0.5240040000000 1.0
C      1  0.4215980000000  0.4847970000000  0.4740790000000 1.0
C      1  0.5777620000000  0.4842100000000  0.5245610000000 1.0
C      1  0.4837770000000  0.4750530000000  0.4221380000000 1.0
C      1  0.4845780000000  0.5257200000000  0.5786340000000 1.0
C      1  0.5161090000000  0.5243810000000  0.4222790000000 1.0
C      1  0.5148170000000  0.5804260000000  0.4763190000000 1.0
C      1  0.4746450000000  0.5169020000000  0.5780660000000 1.0
C      1  0.5779130000000  0.4749100000000  0.5151420000000 1.0
C      1  0.4838000000000  0.5781510000000  0.5260990000000 1.0
C      1  0.5170840000000  0.4220680000000  0.5253670000000 1.0
C      1  0.4851690000000  0.4191870000000  0.4759080000000 1.0
C      1  0.5247970000000  0.5143620000000  0.4217850000000 1.0
C      1  0.4747290000000  0.4847090000000  0.4221760000000 1.0
C      1  0.5242530000000  0.4853820000000  0.5805610000000 1.0
C      1  0.4221140000000  0.4748140000000  0.4828600000000 1.0
C      1  0.5774860000000  0.5245300000000  0.4839950000000 1.0
C      1  0.4192770000000  0.5240990000000  0.5146940000000 1.0
C      1  0.5661910000000  0.4925040000000  0.4243190000000 1.0
C      1  0.4957860000000  0.4248660000000  0.5671390000000 1.0
C      1  0.4233350000000  0.5659700000000  0.4958640000000 1.0
C      1  0.4328640000000  0.4955630000000  0.5751470000000 1.0
C      1  0.4331380000000  0.5060920000000  0.4238250000000 1.0
C      1  0.5660680000000  0.5044470000000  0.5760190000000 1.0
C      1  0.5042880000000  0.4238710000000  0.4339850000000 1.0
C      1  0.5050300000000  0.5763190000000  0.5677950000000 1.0
C      1  0.4951490000000  0.5751110000000  0.4345710000000 1.0
C      1  0.5748990000000  0.5666040000000  0.5046090000000 1.0
C      1  0.5764200000000  0.4327570000000  0.4946550000000 1.0
C      1  0.4247530000000  0.4329500000000  0.5041580000000 1.0
C      1  0.4246900000000  0.4944770000000  0.5654460000000 1.0
C      1  0.5671070000000  0.4242390000000  0.4931860000000 1.0
C      1  0.4958210000000  0.5667200000000  0.4250220000000 1.0
C      1  0.5755970000000  0.4942040000000  0.4327000000000 1.0
C      1  0.4243660000000  0.5071230000000  0.4329450000000 1.0
C      1  0.5745200000000  0.5052370000000  0.5665710000000 1.0
C      1  0.4344690000000  0.4248170000000  0.5054600000000 1.0
C      1  0.5656630000000  0.5752930000000  0.5053180000000 1.0
C      1  0.4326780000000  0.5745490000000  0.4952090000000 1.0
C      1  0.5066410000000  0.5669530000000  0.5762240000000 1.0
C      1  0.4947240000000  0.4345700000000  0.5753190000000 1.0
C      1  0.5034600000000  0.4325090000000  0.4247180000000 1.0
C      1  0.4430800000000  0.5151940000000  0.4650020000000 1.0
C      1  0.5141820000000  0.4643660000000  0.4429890000000 1.0
C      1  0.4662830000000  0.4434790000000  0.5142100000000 1.0
C      1  0.5566590000000  0.5145750000000  0.5345080000000 1.0
C      1  0.5565590000000  0.4846430000000  0.4647270000000 1.0
C      1  0.4434620000000  0.4857660000000  0.5336980000000 1.0
C      1  0.4858180000000  0.4662620000000  0.5565240000000 1.0
C      1  0.4856150000000  0.5348630000000  0.4436220000000 1.0
C      1  0.5149160000000  0.5351330000000  0.5572980000000 1.0
C      1  0.5349670000000  0.4426230000000  0.4849820000000 1.0
C      1  0.5339520000000  0.5566000000000  0.5145760000000 1.0
C      1  0.4650010000000  0.5570060000000  0.4859630000000 1.0
C      1  0.4650470000000  0.5152110000000  0.4432000000000 1.0
C      1  0.4435030000000  0.4650390000000  0.5139570000000 1.0
C      1  0.5140690000000  0.4426620000000  0.4654510000000 1.0
C      1  0.5345530000000  0.5143150000000  0.5567790000000 1.0
C      1  0.4650330000000  0.4859380000000  0.5565040000000 1.0
C      1  0.5342130000000  0.4843830000000  0.4430340000000 1.0
C      1  0.5568900000000  0.4644740000000  0.4848680000000 1.0
C      1  0.4430800000000  0.5347900000000  0.4858490000000 1.0
C      1  0.5564740000000  0.5346220000000  0.5145540000000 1.0
C      1  0.4860140000000  0.4434950000000  0.5349670000000 1.0
C      1  0.5146080000000  0.5571140000000  0.5357880000000 1.0
C      1  0.4857900000000  0.5566820000000  0.4663630000000 1.0
C      1  0.5602680000000  0.5348440000000  0.4467700000000 1.0
C      1  0.5332120000000  0.4483320000000  0.5609820000000 1.0
C      1  0.4479240000000  0.5582840000000  0.5373790000000 1.0
C      1  0.4386950000000  0.5327790000000  0.5519810000000 1.0
C      1  0.4352760000000  0.4709310000000  0.4433520000000 1.0
C      1  0.5585120000000  0.4633190000000  0.5514490000000 1.0
C      1  0.4629010000000  0.4484140000000  0.4415800000000 1.0
C      1  0.4703440000000  0.5564790000000  0.5651220000000 1.0
C      1  0.5392790000000  0.5496410000000  0.4434300000000 1.0
C      1  0.5534020000000  0.5626250000000  0.4692060000000 1.0
C      1  0.5567540000000  0.4354560000000  0.5292380000000 1.0
C      1  0.4481810000000  0.4390450000000  0.4669610000000 1.0
C      1  0.4495090000000  0.5396290000000  0.5570070000000 1.0
C      1  0.5610030000000  0.4469240000000  0.5352550000000 1.0
C      1  0.5327200000000  0.5606040000000  0.4485200000000 1.0
C      1  0.5558750000000  0.5286880000000  0.4354050000000 1.0
C      1  0.4466670000000  0.4647850000000  0.4391270000000 1.0
C      1  0.5536430000000  0.4692480000000  0.5628210000000 1.0
C      1  0.4432320000000  0.4498880000000  0.4601040000000 1.0
C      1  0.5580020000000  0.5511940000000  0.4631240000000 1.0
C      1  0.4366380000000  0.5534390000000  0.5312600000000 1.0
C      1  0.4641140000000  0.5607420000000  0.5537720000000 1.0
C      1  0.5400560000000  0.4434410000000  0.5501120000000 1.0
C      1  0.4688360000000  0.4369920000000  0.4463970000000 1.0
C      1  0.4302700000000  0.4852010000000  0.4624510000000 1.0
C      1  0.4830140000000  0.4630550000000  0.4308290000000 1.0
C      1  0.4651690000000  0.4299020000000  0.4837210000000 1.0
C      1  0.5690850000000  0.4835420000000  0.5365830000000 1.0
C      1  0.5690860000000  0.5155530000000  0.4627530000000 1.0
C      1  0.4297870000000  0.5161960000000  0.5347860000000 1.0
C      1  0.5164210000000  0.4653020000000  0.5700170000000 1.0
C      1  0.5177080000000  0.5359790000000  0.4316080000000 1.0
C      1  0.4848830000000  0.5374300000000  0.5700680000000 1.0
C      1  0.5375740000000  0.4300760000000  0.5149600000000 1.0
C      1  0.5348900000000  0.5702950000000  0.4844590000000 1.0
C      1  0.4625310000000  0.5691310000000  0.5172650000000 1.0
C      1  0.4627530000000  0.4842910000000  0.4306370000000 1.0
C      1  0.4315670000000  0.4634310000000  0.4815320000000 1.0
C      1  0.4839110000000  0.4292720000000  0.4649490000000 1.0
C      1  0.5350950000000  0.4841290000000  0.5704060000000 1.0
C      1  0.4632520000000  0.5182240000000  0.5685950000000 1.0
C      1  0.5366390000000  0.5141710000000  0.4302560000000 1.0
C      1  0.5695220000000  0.4628560000000  0.5157600000000 1.0
C      1  0.4293430000000  0.5349850000000  0.5160870000000 1.0
C      1  0.5687320000000  0.5364580000000  0.4833170000000 1.0
C      1  0.5184620000000  0.4316100000000  0.5366700000000 1.0
C      1  0.4834840000000  0.5695000000000  0.5379340000000 1.0
C      1  0.5163240000000  0.5700370000000  0.4655540000000 1.0
C      1  0.4270130000000  0.5484820000000  0.4633100000000 1.0
C      1  0.5469040000000  0.4612500000000  0.4272540000000 1.0
C      1  0.4638020000000  0.4275510000000  0.5479650000000 1.0
C      1  0.5726320000000  0.5476740000000  0.5367520000000 1.0
C      1  0.5731630000000  0.4515580000000  0.4624450000000 1.0
C      1  0.4274530000000  0.4520280000000  0.5360960000000 1.0
C      1  0.4520660000000  0.4637120000000  0.5724330000000 1.0
C      1  0.4526200000000  0.5379590000000  0.4271710000000 1.0
C      1  0.5482950000000  0.5368290000000  0.5728760000000 1.0
C      1  0.5367150000000  0.4266130000000  0.4518120000000 1.0
C      1  0.5370670000000  0.5732400000000  0.5482630000000 1.0
C      1  0.4630220000000  0.5727060000000  0.4530370000000 1.0
C      1  0.4635270000000  0.5483850000000  0.4274890000000 1.0
C      1  0.4276500000000  0.4626390000000  0.5467540000000 1.0
C      1  0.5475560000000  0.4267980000000  0.4620640000000 1.0
C      1  0.5379180000000  0.5476550000000  0.5731040000000 1.0
C      1  0.4627540000000  0.4531300000000  0.5723590000000 1.0
C      1  0.5360510000000  0.4509440000000  0.4267500000000 1.0
C      1  0.5728170000000  0.4621810000000  0.4517210000000 1.0
C      1  0.4272670000000  0.5381870000000  0.4523940000000 1.0
C      1  0.5726920000000  0.5370870000000  0.5473890000000 1.0
C      1  0.4531630000000  0.4277390000000  0.5373420000000 1.0
C      1  0.5475440000000  0.5725990000000  0.5374860000000 1.0
C      1  0.4523510000000  0.5730170000000  0.4635260000000 1.0
C      1  0.4997560000000  0.4882390000000  0.4363620000000 1.0
C      1  0.4898550000000  0.4356490000000  0.5008280000000 1.0
C      1  0.4357900000000  0.4999300000000  0.4877640000000 1.0
C      1  0.4992080000000  0.4898820000000  0.5642790000000 1.0
C      1  0.4998780000000  0.5110840000000  0.4366240000000 1.0
C      1  0.4997980000000  0.5122270000000  0.5643290000000 1.0
C      1  0.5122160000000  0.4355870000000  0.5001560000000 1.0
C      1  0.5103150000000  0.5643720000000  0.5014010000000 1.0
C      1  0.4878870000000  0.5641450000000  0.5011030000000 1.0
C      1  0.5633690000000  0.4998510000000  0.5110410000000 1.0
C      1  0.5633700000000  0.4993640000000  0.4882680000000 1.0
C      1  0.4356860000000  0.4991900000000  0.5101240000000 1.0
C      1  0.4360400000000  0.4881980000000  0.4989820000000 1.0
C      1  0.5009950000000  0.4353110000000  0.4893750000000 1.0
C      1  0.4884320000000  0.5001610000000  0.4365220000000 1.0
C      1  0.5634740000000  0.4882360000000  0.4994460000000 1.0
C      1  0.4354870000000  0.5106760000000  0.4989820000000 1.0
C      1  0.5632660000000  0.5110040000000  0.4998250000000 1.0
C      1  0.5009900000000  0.4359770000000  0.5118530000000 1.0
C      1  0.4994160000000  0.5641900000000  0.5125720000000 1.0
C      1  0.4990270000000  0.5643420000000  0.4901240000000 1.0
C      1  0.5106280000000  0.5010770000000  0.5644940000000 1.0
C      1  0.4881300000000  0.5009450000000  0.5640280000000 1.0
C      1  0.5110750000000  0.4992050000000  0.4363660000000 1.0
C      1  0.5125600000000  0.5226060000000  0.4668220000000 1.0
C      1  0.5232760000000  0.4662060000000  0.5122950000000 1.0
C      1  0.4665580000000  0.5128340000000  0.5230350000000 1.0
C      1  0.4875430000000  0.5233320000000  0.5338710000000 1.0
C      1  0.4873230000000  0.4770310000000  0.4663360000000 1.0
C      1  0.5128020000000  0.4770860000000  0.5333080000000 1.0
C      1  0.4770700000000  0.4665780000000  0.4871740000000 1.0
C      1  0.4770160000000  0.5337530000000  0.5129530000000 1.0
C      1  0.5230150000000  0.5332780000000  0.4875550000000 1.0
C      1  0.5333840000000  0.5121070000000  0.4769420000000 1.0
C      1  0.5334990000000  0.4873410000000  0.5226530000000 1.0
C      1  0.4664240000000  0.4877150000000  0.4767970000000 1.0
C      1  0.4663940000000  0.5234000000000  0.5127500000000 1.0
C      1  0.5128780000000  0.4666650000000  0.5226960000000 1.0
C      1  0.5228380000000  0.5120340000000  0.4665020000000 1.0
C      1  0.5332350000000  0.5225340000000  0.4874170000000 1.0
C      1  0.4667100000000  0.4772510000000  0.4871150000000 1.0
C      1  0.5337250000000  0.4767640000000  0.5123090000000 1.0
C      1  0.4873990000000  0.4663390000000  0.4766410000000 1.0
C      1  0.5125560000000  0.5332800000000  0.4771870000000 1.0
C      1  0.4874070000000  0.5338920000000  0.5234350000000 1.0
C      1  0.4771820000000  0.5128990000000  0.5334370000000 1.0
C      1  0.5232600000000  0.4874730000000  0.5333860000000 1.0
C      1  0.4769660000000  0.4876220000000  0.4663440000000 1.0
C      1  0.5324390000000  0.5108570000000  0.4444580000000 1.0
C      1  0.5130690000000  0.4446750000000  0.5327460000000 1.0
C      1  0.4432450000000  0.5274050000000  0.5145500000000 1.0
C      1  0.4671650000000  0.5129190000000  0.5554570000000 1.0
C      1  0.4670790000000  0.4883560000000  0.4444310000000 1.0
C      1  0.5274030000000  0.4856430000000  0.5565350000000 1.0
C      1  0.4855100000000  0.4431870000000  0.4725500000000 1.0
C      1  0.4877400000000  0.5557440000000  0.5335450000000 1.0
C      1  0.5146510000000  0.5564590000000  0.4733570000000 1.0
C      1  0.5551960000000  0.5323140000000  0.4878370000000 1.0
C      1  0.5556630000000  0.4670110000000  0.5116640000000 1.0
C      1  0.4446750000000  0.4673100000000  0.4869270000000 1.0
C      1  0.4433730000000  0.5146820000000  0.5270190000000 1.0
C      1  0.5332300000000  0.4442440000000  0.5114870000000 1.0
C      1  0.5125130000000  0.5321970000000  0.4447790000000 1.0
C      1  0.5552720000000  0.5114210000000  0.4670400000000 1.0
C      1  0.4444340000000  0.4886130000000  0.4668050000000 1.0
C      1  0.5554870000000  0.4879440000000  0.5324720000000 1.0
C      1  0.4730210000000  0.4434150000000  0.4852500000000 1.0
C      1  0.5271000000000  0.5564520000000  0.4857920000000 1.0
C      1  0.4667920000000  0.5556290000000  0.5126640000000 1.0
C      1  0.4883340000000  0.5331990000000  0.5558910000000 1.0
C      1  0.5148080000000  0.4731070000000  0.5564690000000 1.0
C      1  0.4876240000000  0.4670900000000  0.4444070000000 1.0
C      1  0.5534210000000  0.4272860000000  0.4938830000000 1.0
C      1  0.4285470000000  0.4954300000000  0.5518450000000 1.0
C      1  0.4960560000000  0.5529190000000  0.4290690000000 1.0
C      1  0.4480870000000  0.4285970000000  0.5045100000000 1.0
C      1  0.4464430000000  0.5716970000000  0.4957920000000 1.0
C      1  0.5520460000000  0.5713650000000  0.5048680000000 1.0
C      1  0.5713330000000  0.4945750000000  0.4463630000000 1.0
C      1  0.5716240000000  0.5047810000000  0.5528190000000 1.0
C      1  0.4277730000000  0.5063500000000  0.4466000000000 1.0
C      1  0.5059940000000  0.5533200000000  0.5729430000000 1.0
C      1  0.5036180000000  0.4462730000000  0.4283390000000 1.0
C      1  0.4956700000000  0.4481600000000  0.5713660000000 1.0
C      1  0.4962090000000  0.4290710000000  0.5533210000000 1.0
C      1  0.5525260000000  0.4931440000000  0.4274260000000 1.0
C      1  0.4282110000000  0.5524400000000  0.4959690000000 1.0
C      1  0.5040420000000  0.4277690000000  0.4476030000000 1.0
C      1  0.4958480000000  0.5712760000000  0.4482120000000 1.0
C      1  0.5046870000000  0.5720080000000  0.5541420000000 1.0
C      1  0.4466710000000  0.4960760000000  0.5709350000000 1.0
C      1  0.5524620000000  0.5042650000000  0.5713560000000 1.0
C      1  0.4467580000000  0.5056140000000  0.4280020000000 1.0
C      1  0.5711200000000  0.5528710000000  0.5044340000000 1.0
C      1  0.4291060000000  0.4467460000000  0.5036750000000 1.0
C      1  0.5720280000000  0.4463830000000  0.4948760000000 1.0
C      1  0.4989270000000  0.4908680000000  0.5907330000000 1.0
C      1  0.4887690000000  0.5904390000000  0.5015770000000 1.0
C      1  0.5896780000000  0.4998980000000  0.4894820000000 1.0
C      1  0.4991300000000  0.4895870000000  0.4100340000000 1.0
C      1  0.4990120000000  0.5108600000000  0.5908790000000 1.0
C      1  0.5000430000000  0.5101290000000  0.4103350000000 1.0
C      1  0.5089830000000  0.5909510000000  0.5013070000000 1.0
C      1  0.5109000000000  0.4090740000000  0.5011100000000 1.0
C      1  0.4908290000000  0.4092230000000  0.5013120000000 1.0
C      1  0.4092330000000  0.4988310000000  0.5089950000000 1.0
C      1  0.4092190000000  0.4990610000000  0.4889360000000 1.0
C      1  0.5896090000000  0.4996850000000  0.5097570000000 1.0
C      1  0.5897710000000  0.4896720000000  0.4997720000000 1.0
C      1  0.4989600000000  0.5908190000000  0.4912840000000 1.0
C      1  0.4887340000000  0.5011610000000  0.5903620000000 1.0
C      1  0.4097040000000  0.4887440000000  0.4986010000000 1.0
C      1  0.5895150000000  0.5099190000000  0.4994580000000 1.0
C      1  0.4087900000000  0.5091300000000  0.4992810000000 1.0
C      1  0.4987960000000  0.5905610000000  0.5115790000000 1.0
C      1  0.5012220000000  0.4096710000000  0.5114080000000 1.0
C      1  0.5005540000000  0.4086770000000  0.4910270000000 1.0
C      1  0.5095290000000  0.4996750000000  0.4099600000000 1.0
C      1  0.4896080000000  0.5000300000000  0.4103030000000 1.0
C      1  0.5091910000000  0.5006130000000  0.5912030000000 1.0
C      1  0.4247760000000  0.5409210000000  0.5027660000000 1.0
C      1  0.5415400000000  0.5007650000000  0.4239450000000 1.0
C      1  0.5037240000000  0.4252560000000  0.5425010000000 1.0
C      1  0.5748990000000  0.5418430000000  0.4970680000000 1.0
C      1  0.5755560000000  0.4575710000000  0.5021410000000 1.0
C      1  0.4253070000000  0.4575860000000  0.4961380000000 1.0
C      1  0.4574870000000  0.5036190000000  0.5747940000000 1.0
C      1  0.4577550000000  0.4980780000000  0.4245380000000 1.0
C      1  0.5410010000000  0.4974340000000  0.5749870000000 1.0
C      1  0.4971600000000  0.4243790000000  0.4590900000000 1.0
C      1  0.4971610000000  0.5755240000000  0.5431530000000 1.0
C      1  0.5029310000000  0.5747090000000  0.4595980000000 1.0
C      1  0.5033550000000  0.5418850000000  0.4252570000000 1.0
C      1  0.4251740000000  0.5026620000000  0.5405660000000 1.0
C      1  0.5425300000000  0.4237700000000  0.5016080000000 1.0
C      1  0.4982980000000  0.5423990000000  0.5763250000000 1.0
C      1  0.5029110000000  0.4594500000000  0.5746530000000 1.0
C      1  0.4964910000000  0.4574600000000  0.4245530000000 1.0
C      1  0.5750530000000  0.5019320000000  0.4574530000000 1.0
C      1  0.4241530000000  0.4986310000000  0.4574570000000 1.0
C      1  0.5754010000000  0.4973100000000  0.5418520000000 1.0
C      1  0.4593480000000  0.4252690000000  0.4972540000000 1.0
C      1  0.5406710000000  0.5749170000000  0.4978820000000 1.0
C      1  0.4572440000000  0.5754540000000  0.5034560000000 1.0
C      1  0.4811900000000  0.5708900000000  0.4713120000000 1.0
C      1  0.5711010000000  0.4697060000000  0.4807420000000 1.0
C      1  0.4699720000000  0.4821720000000  0.5707980000000 1.0
C      1  0.5184160000000  0.5713010000000  0.5305670000000 1.0
C      1  0.5187440000000  0.4284290000000  0.4703470000000 1.0
C      1  0.4822440000000  0.4291980000000  0.5300510000000 1.0
C      1  0.4291840000000  0.4699640000000  0.5176770000000 1.0
C      1  0.4288890000000  0.5298170000000  0.4811780000000 1.0
C      1  0.5708250000000  0.5296220000000  0.5184800000000 1.0
C      1  0.5291320000000  0.4800290000000  0.4287670000000 1.0
C      1  0.5296940000000  0.5188920000000  0.5710480000000 1.0
C      1  0.4703720000000  0.5192910000000  0.4290200000000 1.0
C      1  0.4699950000000  0.5712630000000  0.4821580000000 1.0
C      1  0.4811340000000  0.4712710000000  0.5706670000000 1.0
C      1  0.5708820000000  0.4806410000000  0.4697650000000 1.0
C      1  0.5290620000000  0.5707930000000  0.5193430000000 1.0
C      1  0.4712840000000  0.4293710000000  0.5189460000000 1.0
C      1  0.5299290000000  0.4283650000000  0.4809450000000 1.0
C      1  0.5180700000000  0.4692480000000  0.4286090000000 1.0
C      1  0.4816270000000  0.5300420000000  0.4292490000000 1.0
C      1  0.5190570000000  0.5299880000000  0.5714610000000 1.0
C      1  0.4293500000000  0.4810450000000  0.5286410000000 1.0
C      1  0.5709380000000  0.5186370000000  0.5294890000000 1.0
C      1  0.4288320000000  0.5192480000000  0.4700190000000 1.0
C      1  0.4526130000000  0.5528410000000  0.5502380000000 1.0
C      1  0.5524610000000  0.5464470000000  0.4502790000000 1.0
C      1  0.5531690000000  0.4503970000000  0.5468290000000 1.0
C      1  0.4500780000000  0.4531450000000  0.4469550000000 1.0
END
