TITL C-1892071-372-64 -4.68426732904679e-07 1000000 -2652.31368165916 0 0 380 (Th) n - 1
REM
REM in /nfs/bkarasulu/CARBON/AIRSS/Generating-Clusters/GAP-ML-2020/Higher-Symm/Selected-Sizes/TryA-Only_Ih-Symm/Larger-Clusters
REM
REM
REM
REM
REM
REM ./C.cell (2cf5181f0f1d4d5b12b972d32ad12063)
REM
REM compiler GCC version 9.2.1 20190827 (Red Hat 9.2.1-1)
REM options -cpp -mtune=generic -march=x86-64 -g -O0 -fpre-include=/usr/include/finclude/math-vector-fortran.h
REM seed -1492496902 832495476 1943849491 1335537002 2052099590 -1247060612 1823414949 2095875943 -710163674 1973642040 -1382562882 2103278112 1974724187 -985006180 -870497053 1102146316 -1317700049 243367815 -1114663297 1595896996 302216883 1424497415 1908498322 484240192 -540540068 509683309 331804346 -466965810 489524752 -1168671476 805538814 2006612387 1991323225
REM
CELL 1.54180  100.00000  100.00000  100.00000   90.00000   90.00000   90.00000
LATT -1
SFAC C  
C      1  0.5579290000000  0.4927360000000  0.4541610000000 1.0
C      1  0.4927740000000  0.4543370000000  0.5577150000000 1.0
C      1  0.4543750000000  0.5578910000000  0.4925600000000 1.0
C      1  0.5579290000000  0.5076910000000  0.5459150000000 1.0
C      1  0.4425750000000  0.4927360000000  0.5459150000000 1.0
C      1  0.4425750000000  0.5076910000000  0.4541610000000 1.0
C      1  0.4927740000000  0.5460910000000  0.4423610000000 1.0
C      1  0.5077290000000  0.4543370000000  0.4423610000000 1.0
C      1  0.5077290000000  0.5460910000000  0.5577150000000 1.0
C      1  0.4543750000000  0.4425370000000  0.5075150000000 1.0
C      1  0.5461290000000  0.5578910000000  0.5075150000000 1.0
C      1  0.5461290000000  0.4425370000000  0.4925600000000 1.0
C      1  0.4425750000000  0.4927360000000  0.4541610000000 1.0
C      1  0.5077290000000  0.4543370000000  0.5577150000000 1.0
C      1  0.5461290000000  0.5578910000000  0.4925600000000 1.0
C      1  0.4425750000000  0.5076910000000  0.5459150000000 1.0
C      1  0.5579290000000  0.4927360000000  0.5459150000000 1.0
C      1  0.5579290000000  0.5076910000000  0.4541610000000 1.0
C      1  0.5077290000000  0.5460910000000  0.4423610000000 1.0
C      1  0.4927740000000  0.4543370000000  0.4423610000000 1.0
C      1  0.4927740000000  0.5460910000000  0.5577150000000 1.0
C      1  0.5461290000000  0.4425370000000  0.5075150000000 1.0
C      1  0.4543750000000  0.5578910000000  0.5075150000000 1.0
C      1  0.4543750000000  0.4425370000000  0.4925600000000 1.0
C      1  0.5585100000000  0.4924540000000  0.5074210000000 1.0
C      1  0.4924920000000  0.5075970000000  0.5582960000000 1.0
C      1  0.5076350000000  0.5584720000000  0.4922780000000 1.0
C      1  0.5585100000000  0.5079740000000  0.4926550000000 1.0
C      1  0.4419930000000  0.4924540000000  0.4926550000000 1.0
C      1  0.4419930000000  0.5079740000000  0.5074210000000 1.0
C      1  0.4924920000000  0.4928310000000  0.4417790000000 1.0
C      1  0.5080110000000  0.5075970000000  0.4417790000000 1.0
C      1  0.5080110000000  0.4928310000000  0.5582960000000 1.0
C      1  0.5076350000000  0.4419560000000  0.5077980000000 1.0
C      1  0.4928680000000  0.5584720000000  0.5077980000000 1.0
C      1  0.4928680000000  0.4419560000000  0.4922780000000 1.0
C      1  0.4419930000000  0.4924540000000  0.5074210000000 1.0
C      1  0.5080110000000  0.5075970000000  0.5582960000000 1.0
C      1  0.4928680000000  0.5584720000000  0.4922780000000 1.0
C      1  0.4419930000000  0.5079740000000  0.4926550000000 1.0
C      1  0.5585100000000  0.4924540000000  0.4926550000000 1.0
C      1  0.5585100000000  0.5079740000000  0.5074210000000 1.0
C      1  0.5080110000000  0.4928310000000  0.4417790000000 1.0
C      1  0.4924920000000  0.5075970000000  0.4417790000000 1.0
C      1  0.4924920000000  0.4928310000000  0.5582960000000 1.0
C      1  0.4928680000000  0.4419560000000  0.5077980000000 1.0
C      1  0.5076350000000  0.5584720000000  0.5077980000000 1.0
C      1  0.5076350000000  0.4419560000000  0.4922780000000 1.0
C      1  0.5686930000000  0.5251820000000  0.4696080000000 1.0
C      1  0.5252200000000  0.4697840000000  0.5684790000000 1.0
C      1  0.4698220000000  0.5686560000000  0.5250060000000 1.0
C      1  0.5686930000000  0.4752460000000  0.5304680000000 1.0
C      1  0.4318100000000  0.5251820000000  0.5304680000000 1.0
C      1  0.4318100000000  0.4752460000000  0.4696080000000 1.0
C      1  0.5252200000000  0.5306440000000  0.4315960000000 1.0
C      1  0.4752840000000  0.4697840000000  0.4315960000000 1.0
C      1  0.4752840000000  0.5306440000000  0.5684790000000 1.0
C      1  0.4698220000000  0.4317720000000  0.4750700000000 1.0
C      1  0.5306810000000  0.5686560000000  0.4750700000000 1.0
C      1  0.5306810000000  0.4317720000000  0.5250060000000 1.0
C      1  0.4318100000000  0.5251820000000  0.4696080000000 1.0
C      1  0.4752840000000  0.4697840000000  0.5684790000000 1.0
C      1  0.5306810000000  0.5686560000000  0.5250060000000 1.0
C      1  0.4318100000000  0.4752460000000  0.5304680000000 1.0
C      1  0.5686930000000  0.5251820000000  0.5304680000000 1.0
C      1  0.5686930000000  0.4752460000000  0.4696080000000 1.0
C      1  0.4752840000000  0.5306440000000  0.4315960000000 1.0
C      1  0.5252200000000  0.4697840000000  0.4315960000000 1.0
C      1  0.5252200000000  0.5306440000000  0.5684790000000 1.0
C      1  0.5306810000000  0.4317720000000  0.4750700000000 1.0
C      1  0.4698220000000  0.5686560000000  0.4750700000000 1.0
C      1  0.4698220000000  0.4317720000000  0.5250060000000 1.0
C      1  0.5672790000000  0.4886560000000  0.4639550000000 1.0
C      1  0.4886940000000  0.4641310000000  0.5670650000000 1.0
C      1  0.4641690000000  0.5672410000000  0.4884800000000 1.0
C      1  0.5672790000000  0.5117710000000  0.5361210000000 1.0
C      1  0.4332240000000  0.4886560000000  0.5361210000000 1.0
C      1  0.4332240000000  0.5117710000000  0.4639550000000 1.0
C      1  0.4886940000000  0.5362970000000  0.4330100000000 1.0
C      1  0.5118090000000  0.4641310000000  0.4330100000000 1.0
C      1  0.5118090000000  0.5362970000000  0.5670650000000 1.0
C      1  0.4641690000000  0.4331860000000  0.5115950000000 1.0
C      1  0.5363350000000  0.5672410000000  0.5115950000000 1.0
C      1  0.5363350000000  0.4331860000000  0.4884800000000 1.0
C      1  0.4332240000000  0.4886560000000  0.4639550000000 1.0
C      1  0.5118090000000  0.4641310000000  0.5670650000000 1.0
C      1  0.5363350000000  0.5672410000000  0.4884800000000 1.0
C      1  0.4332240000000  0.5117710000000  0.5361210000000 1.0
C      1  0.5672790000000  0.4886560000000  0.5361210000000 1.0
C      1  0.5672790000000  0.5117710000000  0.4639550000000 1.0
C      1  0.5118090000000  0.5362970000000  0.4330100000000 1.0
C      1  0.4886940000000  0.4641310000000  0.4330100000000 1.0
C      1  0.4886940000000  0.5362970000000  0.5670650000000 1.0
C      1  0.5363350000000  0.4331860000000  0.5115950000000 1.0
C      1  0.4641690000000  0.5672410000000  0.5115950000000 1.0
C      1  0.4641690000000  0.4331860000000  0.4884800000000 1.0
C      1  0.5196060000000  0.4923260000000  0.5080790000000 1.0
C      1  0.4923640000000  0.5082550000000  0.5193920000000 1.0
C      1  0.5082930000000  0.5195680000000  0.4921500000000 1.0
C      1  0.5196060000000  0.5081020000000  0.4919960000000 1.0
C      1  0.4808970000000  0.4923260000000  0.4919960000000 1.0
C      1  0.4808970000000  0.5081020000000  0.5080790000000 1.0
C      1  0.4923640000000  0.4921730000000  0.4806830000000 1.0
C      1  0.5081390000000  0.5082550000000  0.4806830000000 1.0
C      1  0.5081390000000  0.4921730000000  0.5193920000000 1.0
C      1  0.5082930000000  0.4808600000000  0.5079260000000 1.0
C      1  0.4922100000000  0.5195680000000  0.5079260000000 1.0
C      1  0.4922100000000  0.4808600000000  0.4921500000000 1.0
C      1  0.4808970000000  0.4923260000000  0.5080790000000 1.0
C      1  0.5081390000000  0.5082550000000  0.5193920000000 1.0
C      1  0.4922100000000  0.5195680000000  0.4921500000000 1.0
C      1  0.4808970000000  0.5081020000000  0.4919960000000 1.0
C      1  0.5196060000000  0.4923260000000  0.4919960000000 1.0
C      1  0.5196060000000  0.5081020000000  0.5080790000000 1.0
C      1  0.5081390000000  0.4921730000000  0.4806830000000 1.0
C      1  0.4923640000000  0.5082550000000  0.4806830000000 1.0
C      1  0.4923640000000  0.4921730000000  0.5193920000000 1.0
C      1  0.4922100000000  0.4808600000000  0.5079260000000 1.0
C      1  0.5082930000000  0.5195680000000  0.5079260000000 1.0
C      1  0.5082930000000  0.4808600000000  0.4921500000000 1.0
C      1  0.4926030000000  0.4923310000000  0.4569270000000 1.0
C      1  0.4923690000000  0.4571030000000  0.4923900000000 1.0
C      1  0.4571410000000  0.4925660000000  0.4921550000000 1.0
C      1  0.4926030000000  0.5080970000000  0.5431480000000 1.0
C      1  0.5079000000000  0.4923310000000  0.5431480000000 1.0
C      1  0.5079000000000  0.5080970000000  0.4569270000000 1.0
C      1  0.4923690000000  0.5433250000000  0.5076860000000 1.0
C      1  0.5081340000000  0.4571030000000  0.5076860000000 1.0
C      1  0.5081340000000  0.5433250000000  0.4923900000000 1.0
C      1  0.4571410000000  0.5078620000000  0.5079200000000 1.0
C      1  0.5433620000000  0.4925660000000  0.5079200000000 1.0
C      1  0.5433620000000  0.5078620000000  0.4921550000000 1.0
C      1  0.5079000000000  0.4923310000000  0.4569270000000 1.0
C      1  0.5081340000000  0.4571030000000  0.4923900000000 1.0
C      1  0.5433620000000  0.4925660000000  0.4921550000000 1.0
C      1  0.5079000000000  0.5080970000000  0.5431480000000 1.0
C      1  0.4926030000000  0.4923310000000  0.5431480000000 1.0
C      1  0.4926030000000  0.5080970000000  0.4569270000000 1.0
C      1  0.5081340000000  0.5433250000000  0.5076860000000 1.0
C      1  0.4923690000000  0.4571030000000  0.5076860000000 1.0
C      1  0.4923690000000  0.5433250000000  0.4923900000000 1.0
C      1  0.5433620000000  0.5078620000000  0.5079200000000 1.0
C      1  0.4571410000000  0.4925660000000  0.5079200000000 1.0
C      1  0.4571410000000  0.5078620000000  0.4921550000000 1.0
C      1  0.5332020000000  0.4938850000000  0.5743450000000 1.0
C      1  0.4939230000000  0.5745210000000  0.5329880000000 1.0
C      1  0.5745590000000  0.5331650000000  0.4937090000000 1.0
C      1  0.5332020000000  0.5065430000000  0.4257310000000 1.0
C      1  0.4673010000000  0.4938850000000  0.4257310000000 1.0
C      1  0.4673010000000  0.5065430000000  0.5743450000000 1.0
C      1  0.4939230000000  0.4259070000000  0.4670870000000 1.0
C      1  0.5065810000000  0.5745210000000  0.4670870000000 1.0
C      1  0.5065810000000  0.4259070000000  0.5329880000000 1.0
C      1  0.5745590000000  0.4672630000000  0.5063670000000 1.0
C      1  0.4259440000000  0.5331650000000  0.5063670000000 1.0
C      1  0.4259440000000  0.4672630000000  0.4937090000000 1.0
C      1  0.4673010000000  0.4938850000000  0.5743450000000 1.0
C      1  0.5065810000000  0.5745210000000  0.5329880000000 1.0
C      1  0.4259440000000  0.5331650000000  0.4937090000000 1.0
C      1  0.4673010000000  0.5065430000000  0.4257310000000 1.0
C      1  0.5332020000000  0.4938850000000  0.4257310000000 1.0
C      1  0.5332020000000  0.5065430000000  0.5743450000000 1.0
C      1  0.5065810000000  0.4259070000000  0.4670870000000 1.0
C      1  0.4939230000000  0.5745210000000  0.4670870000000 1.0
C      1  0.4939230000000  0.4259070000000  0.5329880000000 1.0
C      1  0.4259440000000  0.4672630000000  0.5063670000000 1.0
C      1  0.5745590000000  0.5331650000000  0.5063670000000 1.0
C      1  0.5745590000000  0.4672630000000  0.4937090000000 1.0
C      1  0.5243580000000  0.4832790000000  0.5730710000000 1.0
C      1  0.4833170000000  0.5732470000000  0.5241440000000 1.0
C      1  0.5732850000000  0.5243200000000  0.4831030000000 1.0
C      1  0.5243580000000  0.5171490000000  0.4270040000000 1.0
C      1  0.4761450000000  0.4832790000000  0.4270040000000 1.0
C      1  0.4761450000000  0.5171490000000  0.5730710000000 1.0
C      1  0.4833170000000  0.4271800000000  0.4759320000000 1.0
C      1  0.5171860000000  0.5732470000000  0.4759320000000 1.0
C      1  0.5171860000000  0.4271800000000  0.5241440000000 1.0
C      1  0.5732850000000  0.4761080000000  0.5169730000000 1.0
C      1  0.4272180000000  0.5243200000000  0.5169730000000 1.0
C      1  0.4272180000000  0.4761080000000  0.4831030000000 1.0
C      1  0.4761450000000  0.4832790000000  0.5730710000000 1.0
C      1  0.5171860000000  0.5732470000000  0.5241440000000 1.0
C      1  0.4272180000000  0.5243200000000  0.4831030000000 1.0
C      1  0.4761450000000  0.5171490000000  0.4270040000000 1.0
C      1  0.5243580000000  0.4832790000000  0.4270040000000 1.0
C      1  0.5243580000000  0.5171490000000  0.5730710000000 1.0
C      1  0.5171860000000  0.4271800000000  0.4759320000000 1.0
C      1  0.4833170000000  0.5732470000000  0.4759320000000 1.0
C      1  0.4833170000000  0.4271800000000  0.5241440000000 1.0
C      1  0.4272180000000  0.4761080000000  0.5169730000000 1.0
C      1  0.5732850000000  0.5243200000000  0.5169730000000 1.0
C      1  0.5732850000000  0.4761080000000  0.4831030000000 1.0
C      1  0.4897130000000  0.4853520000000  0.4299130000000 1.0
C      1  0.4853890000000  0.4300890000000  0.4894990000000 1.0
C      1  0.4301270000000  0.4896750000000  0.4851750000000 1.0
C      1  0.4897130000000  0.5150760000000  0.5701620000000 1.0
C      1  0.5107900000000  0.4853520000000  0.5701620000000 1.0
C      1  0.5107900000000  0.5150760000000  0.4299130000000 1.0
C      1  0.4853890000000  0.5703390000000  0.5105760000000 1.0
C      1  0.5151140000000  0.4300890000000  0.5105760000000 1.0
C      1  0.5151140000000  0.5703390000000  0.4894990000000 1.0
C      1  0.4301270000000  0.5107530000000  0.5149000000000 1.0
C      1  0.5703760000000  0.4896750000000  0.5149000000000 1.0
C      1  0.5703760000000  0.5107530000000  0.4851750000000 1.0
C      1  0.5107900000000  0.4853520000000  0.4299130000000 1.0
C      1  0.5151140000000  0.4300890000000  0.4894990000000 1.0
C      1  0.5703760000000  0.4896750000000  0.4851750000000 1.0
C      1  0.5107900000000  0.5150760000000  0.5701620000000 1.0
C      1  0.4897130000000  0.4853520000000  0.5701620000000 1.0
C      1  0.4897130000000  0.5150760000000  0.4299130000000 1.0
C      1  0.5151140000000  0.5703390000000  0.5105760000000 1.0
C      1  0.4853890000000  0.4300890000000  0.5105760000000 1.0
C      1  0.4853890000000  0.5703390000000  0.4894990000000 1.0
C      1  0.5703760000000  0.5107530000000  0.5149000000000 1.0
C      1  0.4301270000000  0.4896750000000  0.5149000000000 1.0
C      1  0.4301270000000  0.5107530000000  0.4851750000000 1.0
C      1  0.5299350000000  0.4716800000000  0.4875010000000 1.0
C      1  0.4717180000000  0.4876780000000  0.5297210000000 1.0
C      1  0.4877150000000  0.5298970000000  0.4715040000000 1.0
C      1  0.5299350000000  0.5287480000000  0.5125740000000 1.0
C      1  0.4705680000000  0.4716800000000  0.5125740000000 1.0
C      1  0.4705680000000  0.5287480000000  0.4875010000000 1.0
C      1  0.4717180000000  0.5127500000000  0.4703540000000 1.0
C      1  0.5287860000000  0.4876780000000  0.4703540000000 1.0
C      1  0.5287860000000  0.5127500000000  0.5297210000000 1.0
C      1  0.4877150000000  0.4705300000000  0.5285720000000 1.0
C      1  0.5127880000000  0.5298970000000  0.5285720000000 1.0
C      1  0.5127880000000  0.4705300000000  0.4715040000000 1.0
C      1  0.4705680000000  0.4716800000000  0.4875010000000 1.0
C      1  0.5287860000000  0.4876780000000  0.5297210000000 1.0
C      1  0.5127880000000  0.5298970000000  0.4715040000000 1.0
C      1  0.4705680000000  0.5287480000000  0.5125740000000 1.0
C      1  0.5299350000000  0.4716800000000  0.5125740000000 1.0
C      1  0.5299350000000  0.5287480000000  0.4875010000000 1.0
C      1  0.5287860000000  0.5127500000000  0.4703540000000 1.0
C      1  0.4717180000000  0.4876780000000  0.4703540000000 1.0
C      1  0.4717180000000  0.5127500000000  0.5297210000000 1.0
C      1  0.5127880000000  0.4705300000000  0.5285720000000 1.0
C      1  0.4877150000000  0.5298970000000  0.5285720000000 1.0
C      1  0.4877150000000  0.4705300000000  0.4715040000000 1.0
C      1  0.5335600000000  0.5615020000000  0.4642230000000 1.0
C      1  0.5615400000000  0.4643990000000  0.5333460000000 1.0
C      1  0.4644370000000  0.5335230000000  0.5613260000000 1.0
C      1  0.5335600000000  0.4389250000000  0.5358520000000 1.0
C      1  0.4669430000000  0.5615020000000  0.5358520000000 1.0
C      1  0.4669430000000  0.4389250000000  0.4642230000000 1.0
C      1  0.5615400000000  0.5360290000000  0.4667290000000 1.0
C      1  0.4389630000000  0.4643990000000  0.4667290000000 1.0
C      1  0.4389630000000  0.5360290000000  0.5333460000000 1.0
C      1  0.4644370000000  0.4669050000000  0.4387490000000 1.0
C      1  0.5360660000000  0.5335230000000  0.4387490000000 1.0
C      1  0.5360660000000  0.4669050000000  0.5613260000000 1.0
C      1  0.4669430000000  0.5615020000000  0.4642230000000 1.0
C      1  0.4389630000000  0.4643990000000  0.5333460000000 1.0
C      1  0.5360660000000  0.5335230000000  0.5613260000000 1.0
C      1  0.4669430000000  0.4389250000000  0.5358520000000 1.0
C      1  0.5335600000000  0.5615020000000  0.5358520000000 1.0
C      1  0.5335600000000  0.4389250000000  0.4642230000000 1.0
C      1  0.4389630000000  0.5360290000000  0.4667290000000 1.0
C      1  0.5615400000000  0.4643990000000  0.4667290000000 1.0
C      1  0.5615400000000  0.5360290000000  0.5333460000000 1.0
C      1  0.5360660000000  0.4669050000000  0.4387490000000 1.0
C      1  0.4644370000000  0.5335230000000  0.4387490000000 1.0
C      1  0.4644370000000  0.4669050000000  0.5613260000000 1.0
C      1  0.4931120000000  0.4599590000000  0.5362440000000 1.0
C      1  0.4599970000000  0.5364200000000  0.4928980000000 1.0
C      1  0.5364580000000  0.4930740000000  0.4597830000000 1.0
C      1  0.4931120000000  0.5404680000000  0.4638320000000 1.0
C      1  0.5073910000000  0.4599590000000  0.4638320000000 1.0
C      1  0.5073910000000  0.5404680000000  0.5362440000000 1.0
C      1  0.4599970000000  0.4640080000000  0.5071780000000 1.0
C      1  0.5405060000000  0.5364200000000  0.5071780000000 1.0
C      1  0.5405060000000  0.4640080000000  0.4928980000000 1.0
C      1  0.5364580000000  0.5073540000000  0.5402920000000 1.0
C      1  0.4640460000000  0.4930740000000  0.5402920000000 1.0
C      1  0.4640460000000  0.5073540000000  0.4597830000000 1.0
C      1  0.5073910000000  0.4599590000000  0.5362440000000 1.0
C      1  0.5405060000000  0.5364200000000  0.4928980000000 1.0
C      1  0.4640460000000  0.4930740000000  0.4597830000000 1.0
C      1  0.5073910000000  0.5404680000000  0.4638320000000 1.0
C      1  0.4931120000000  0.4599590000000  0.4638320000000 1.0
C      1  0.4931120000000  0.5404680000000  0.5362440000000 1.0
C      1  0.5405060000000  0.4640080000000  0.5071780000000 1.0
C      1  0.4599970000000  0.5364200000000  0.5071780000000 1.0
C      1  0.4599970000000  0.4640080000000  0.4928980000000 1.0
C      1  0.4640460000000  0.5073540000000  0.5402920000000 1.0
C      1  0.5364580000000  0.4930740000000  0.5402920000000 1.0
C      1  0.5364580000000  0.5073540000000  0.4597830000000 1.0
C      1  0.4859810000000  0.5152120000000  0.4683920000000 1.0
C      1  0.5152500000000  0.4685680000000  0.4857670000000 1.0
C      1  0.4686050000000  0.4859430000000  0.5150360000000 1.0
C      1  0.4859810000000  0.4852150000000  0.5316840000000 1.0
C      1  0.5145230000000  0.5152120000000  0.5316840000000 1.0
C      1  0.5145230000000  0.4852150000000  0.4683920000000 1.0
C      1  0.5152500000000  0.5318600000000  0.5143090000000 1.0
C      1  0.4852530000000  0.4685680000000  0.5143090000000 1.0
C      1  0.4852530000000  0.5318600000000  0.4857670000000 1.0
C      1  0.4686050000000  0.5144850000000  0.4850390000000 1.0
C      1  0.5318980000000  0.4859430000000  0.4850390000000 1.0
C      1  0.5318980000000  0.5144850000000  0.5150360000000 1.0
C      1  0.5145230000000  0.5152120000000  0.4683920000000 1.0
C      1  0.4852530000000  0.4685680000000  0.4857670000000 1.0
C      1  0.5318980000000  0.4859430000000  0.5150360000000 1.0
C      1  0.5145230000000  0.4852150000000  0.5316840000000 1.0
C      1  0.4859810000000  0.5152120000000  0.5316840000000 1.0
C      1  0.4859810000000  0.4852150000000  0.4683920000000 1.0
C      1  0.4852530000000  0.5318600000000  0.5143090000000 1.0
C      1  0.5152500000000  0.4685680000000  0.5143090000000 1.0
C      1  0.5152500000000  0.5318600000000  0.4857670000000 1.0
C      1  0.5318980000000  0.5144850000000  0.4850390000000 1.0
C      1  0.4686050000000  0.4859430000000  0.4850390000000 1.0
C      1  0.4686050000000  0.5144850000000  0.5150360000000 1.0
C      1  0.4850900000000  0.5475900000000  0.5457270000000 1.0
C      1  0.5476280000000  0.5459030000000  0.4848760000000 1.0
C      1  0.5459400000000  0.4850520000000  0.5474140000000 1.0
C      1  0.4850900000000  0.4528370000000  0.4543490000000 1.0
C      1  0.5154130000000  0.5475900000000  0.4543490000000 1.0
C      1  0.5154130000000  0.4528370000000  0.5457270000000 1.0
C      1  0.5476280000000  0.4545250000000  0.5151990000000 1.0
C      1  0.4528750000000  0.5459030000000  0.5151990000000 1.0
C      1  0.4528750000000  0.4545250000000  0.4848760000000 1.0
C      1  0.5459400000000  0.5153750000000  0.4526610000000 1.0
C      1  0.4545630000000  0.4850520000000  0.4526610000000 1.0
C      1  0.4545630000000  0.5153750000000  0.5474140000000 1.0
C      1  0.5154130000000  0.5475900000000  0.5457270000000 1.0
C      1  0.4528750000000  0.5459030000000  0.4848760000000 1.0
C      1  0.4545630000000  0.4850520000000  0.5474140000000 1.0
C      1  0.5154130000000  0.4528370000000  0.4543490000000 1.0
C      1  0.4850900000000  0.5475900000000  0.4543490000000 1.0
C      1  0.4850900000000  0.4528370000000  0.5457270000000 1.0
C      1  0.4528750000000  0.4545250000000  0.5151990000000 1.0
C      1  0.5476280000000  0.5459030000000  0.5151990000000 1.0
C      1  0.5476280000000  0.4545250000000  0.4848760000000 1.0
C      1  0.4545630000000  0.5153750000000  0.4526610000000 1.0
C      1  0.5459400000000  0.4850520000000  0.4526610000000 1.0
C      1  0.5459400000000  0.5153750000000  0.5474140000000 1.0
C      1  0.5299380000000  0.4502680000000  0.5420820000000 1.0
C      1  0.4503060000000  0.5422580000000  0.5297240000000 1.0
C      1  0.5422960000000  0.5299000000000  0.4500920000000 1.0
C      1  0.5299380000000  0.5501590000000  0.4579930000000 1.0
C      1  0.4705660000000  0.4502680000000  0.4579930000000 1.0
C      1  0.4705660000000  0.5501590000000  0.5420820000000 1.0
C      1  0.4503060000000  0.4581690000000  0.4703520000000 1.0
C      1  0.5501970000000  0.5422580000000  0.4703520000000 1.0
C      1  0.5501970000000  0.4581690000000  0.5297240000000 1.0
C      1  0.5422960000000  0.4705280000000  0.5499830000000 1.0
C      1  0.4582070000000  0.5299000000000  0.5499830000000 1.0
C      1  0.4582070000000  0.4705280000000  0.4500920000000 1.0
C      1  0.4705660000000  0.4502680000000  0.5420820000000 1.0
C      1  0.5501970000000  0.5422580000000  0.5297240000000 1.0
C      1  0.4582070000000  0.5299000000000  0.4500920000000 1.0
C      1  0.4705660000000  0.5501590000000  0.4579930000000 1.0
C      1  0.5299380000000  0.4502680000000  0.4579930000000 1.0
C      1  0.5299380000000  0.5501590000000  0.5420820000000 1.0
C      1  0.5501970000000  0.4581690000000  0.4703520000000 1.0
C      1  0.4503060000000  0.5422580000000  0.4703520000000 1.0
C      1  0.4503060000000  0.4581690000000  0.5297240000000 1.0
C      1  0.4582070000000  0.4705280000000  0.5499830000000 1.0
C      1  0.5422960000000  0.5299000000000  0.5499830000000 1.0
C      1  0.5422960000000  0.4705280000000  0.4500920000000 1.0
C      1  0.5272090000000  0.4290740000000  0.5000380000000 1.0
C      1  0.4732940000000  0.5713540000000  0.5000380000000 1.0
C      1  0.5002520000000  0.5271720000000  0.4288970000000 1.0
C      1  0.4291110000000  0.5002140000000  0.5269960000000 1.0
C      1  0.5002520000000  0.4732560000000  0.5711780000000 1.0
C      1  0.5002520000000  0.4732560000000  0.4288970000000 1.0
C      1  0.5272090000000  0.5713540000000  0.5000380000000 1.0
C      1  0.4732940000000  0.4290740000000  0.5000380000000 1.0
C      1  0.4291110000000  0.5002140000000  0.4730800000000 1.0
C      1  0.5713920000000  0.5002140000000  0.5269960000000 1.0
C      1  0.5002520000000  0.5271720000000  0.5711780000000 1.0
C      1  0.5713920000000  0.5002140000000  0.4730800000000 1.0
C      1  0.5406520000000  0.4598140000000  0.4596380000000 1.0
C      1  0.4598520000000  0.5406140000000  0.4596380000000 1.0
C      1  0.4598520000000  0.4598140000000  0.5404380000000 1.0
C      1  0.4598520000000  0.5406140000000  0.5404380000000 1.0
C      1  0.5406520000000  0.5406140000000  0.4596380000000 1.0
C      1  0.5406520000000  0.4598140000000  0.5404380000000 1.0
C      1  0.5406520000000  0.5406140000000  0.5404380000000 1.0
C      1  0.4598520000000  0.4598140000000  0.4596380000000 1.0
END
