TITL C-1892080-5861-31 8.71102138291764e-07 1000000 -3866.58127600779 0 0 540 (Td) n - 1
REM
REM in /nfs/bkarasulu/CARBON/AIRSS/Generating-Clusters/GAP-ML-2020/Higher-Symm/Selected-Sizes/TryA-Only_Ih-Symm/Larger-Clusters
REM
REM
REM
REM
REM
REM ./C.cell (2cf5181f0f1d4d5b12b972d32ad12063)
REM
REM compiler GCC version 9.2.1 20190827 (Red Hat 9.2.1-1)
REM options -cpp -mtune=generic -march=x86-64 -g -O0 -fpre-include=/usr/include/finclude/math-vector-fortran.h
REM seed 89238711 1533357505 193529243 -659851456 -1226154781 -72474273 1948222750 1499817568 1656994469 685361855 1362903842 637572377 -143652052 -1307608936 893714585 728204037 933495246 -417966767 -331449652 -1698303192 596164805 81799174 1590648695 367094164 664048692 1386665909 -1289756884 -189774467 1646259152 1260514344 -427965419 851961303 -84375133
REM
CELL 1.54180  100.00000  100.00000  100.00000   90.00000   90.00000   90.00000
LATT -1
SFAC C  
C      1  0.5115090000000  0.5475960000000  0.4407890000000 1.0
C      1  0.4407890000000  0.5115090000000  0.5475960000000 1.0
C      1  0.5475960000000  0.4407890000000  0.5115090000000 1.0
C      1  0.4884910000000  0.4524040000000  0.4407890000000 1.0
C      1  0.4884910000000  0.5475960000000  0.5592110000000 1.0
C      1  0.5115090000000  0.4524040000000  0.5592110000000 1.0
C      1  0.5592110000000  0.4884910000000  0.5475960000000 1.0
C      1  0.5592110000000  0.5115090000000  0.4524040000000 1.0
C      1  0.4407890000000  0.4884910000000  0.4524040000000 1.0
C      1  0.4524040000000  0.5592110000000  0.5115090000000 1.0
C      1  0.4524040000000  0.4407890000000  0.4884910000000 1.0
C      1  0.5475960000000  0.5592110000000  0.4884910000000 1.0
C      1  0.5475960000000  0.5115090000000  0.4407890000000 1.0
C      1  0.5115090000000  0.4407890000000  0.5475960000000 1.0
C      1  0.4407890000000  0.5475960000000  0.5115090000000 1.0
C      1  0.4524040000000  0.4884910000000  0.4407890000000 1.0
C      1  0.5475960000000  0.4884910000000  0.5592110000000 1.0
C      1  0.4524040000000  0.5115090000000  0.5592110000000 1.0
C      1  0.4884910000000  0.5592110000000  0.5475960000000 1.0
C      1  0.5115090000000  0.5592110000000  0.4524040000000 1.0
C      1  0.4884910000000  0.4407890000000  0.4524040000000 1.0
C      1  0.5592110000000  0.4524040000000  0.5115090000000 1.0
C      1  0.4407890000000  0.4524040000000  0.4884910000000 1.0
C      1  0.5592110000000  0.5475960000000  0.4884910000000 1.0
C      1  0.4530480000000  0.4950750000000  0.5365710000000 1.0
C      1  0.5365710000000  0.4530480000000  0.4950750000000 1.0
C      1  0.4950750000000  0.5365710000000  0.4530480000000 1.0
C      1  0.5469520000000  0.5049250000000  0.5365710000000 1.0
C      1  0.5469520000000  0.4950750000000  0.4634290000000 1.0
C      1  0.4530480000000  0.5049250000000  0.4634290000000 1.0
C      1  0.4634290000000  0.5469520000000  0.4950750000000 1.0
C      1  0.4634290000000  0.4530480000000  0.5049250000000 1.0
C      1  0.5365710000000  0.5469520000000  0.5049250000000 1.0
C      1  0.5049250000000  0.4634290000000  0.4530480000000 1.0
C      1  0.5049250000000  0.5365710000000  0.5469520000000 1.0
C      1  0.4950750000000  0.4634290000000  0.5469520000000 1.0
C      1  0.4950750000000  0.4530480000000  0.5365710000000 1.0
C      1  0.4530480000000  0.5365710000000  0.4950750000000 1.0
C      1  0.5365710000000  0.4950750000000  0.4530480000000 1.0
C      1  0.5049250000000  0.5469520000000  0.5365710000000 1.0
C      1  0.4950750000000  0.5469520000000  0.4634290000000 1.0
C      1  0.5049250000000  0.4530480000000  0.4634290000000 1.0
C      1  0.5469520000000  0.4634290000000  0.4950750000000 1.0
C      1  0.4530480000000  0.4634290000000  0.5049250000000 1.0
C      1  0.5469520000000  0.5365710000000  0.5049250000000 1.0
C      1  0.4634290000000  0.5049250000000  0.4530480000000 1.0
C      1  0.5365710000000  0.5049250000000  0.5469520000000 1.0
C      1  0.4634290000000  0.4950750000000  0.5469520000000 1.0
C      1  0.5327890000000  0.5511750000000  0.4904820000000 1.0
C      1  0.4904820000000  0.5327890000000  0.5511750000000 1.0
C      1  0.5511750000000  0.4904820000000  0.5327890000000 1.0
C      1  0.4672110000000  0.4488250000000  0.4904820000000 1.0
C      1  0.4672110000000  0.5511750000000  0.5095180000000 1.0
C      1  0.5327890000000  0.4488250000000  0.5095180000000 1.0
C      1  0.5095180000000  0.4672110000000  0.5511750000000 1.0
C      1  0.5095180000000  0.5327890000000  0.4488250000000 1.0
C      1  0.4904820000000  0.4672110000000  0.4488250000000 1.0
C      1  0.4488250000000  0.5095180000000  0.5327890000000 1.0
C      1  0.4488250000000  0.4904820000000  0.4672110000000 1.0
C      1  0.5511750000000  0.5095180000000  0.4672110000000 1.0
C      1  0.5511750000000  0.5327890000000  0.4904820000000 1.0
C      1  0.5327890000000  0.4904820000000  0.5511750000000 1.0
C      1  0.4904820000000  0.5511750000000  0.5327890000000 1.0
C      1  0.4488250000000  0.4672110000000  0.4904820000000 1.0
C      1  0.5511750000000  0.4672110000000  0.5095180000000 1.0
C      1  0.4488250000000  0.5327890000000  0.5095180000000 1.0
C      1  0.4672110000000  0.5095180000000  0.5511750000000 1.0
C      1  0.5327890000000  0.5095180000000  0.4488250000000 1.0
C      1  0.4672110000000  0.4904820000000  0.4488250000000 1.0
C      1  0.5095180000000  0.4488250000000  0.5327890000000 1.0
C      1  0.4904820000000  0.4488250000000  0.4672110000000 1.0
C      1  0.5095180000000  0.5511750000000  0.4672110000000 1.0
C      1  0.5053010000000  0.5140930000000  0.5892440000000 1.0
C      1  0.5892440000000  0.5053010000000  0.5140930000000 1.0
C      1  0.5140930000000  0.5892440000000  0.5053010000000 1.0
C      1  0.4946990000000  0.4859070000000  0.5892440000000 1.0
C      1  0.4946990000000  0.5140930000000  0.4107560000000 1.0
C      1  0.5053010000000  0.4859070000000  0.4107560000000 1.0
C      1  0.4107560000000  0.4946990000000  0.5140930000000 1.0
C      1  0.4107560000000  0.5053010000000  0.4859070000000 1.0
C      1  0.5892440000000  0.4946990000000  0.4859070000000 1.0
C      1  0.4859070000000  0.4107560000000  0.5053010000000 1.0
C      1  0.4859070000000  0.5892440000000  0.4946990000000 1.0
C      1  0.5140930000000  0.4107560000000  0.4946990000000 1.0
C      1  0.5140930000000  0.5053010000000  0.5892440000000 1.0
C      1  0.5053010000000  0.5892440000000  0.5140930000000 1.0
C      1  0.5892440000000  0.5140930000000  0.5053010000000 1.0
C      1  0.4859070000000  0.4946990000000  0.5892440000000 1.0
C      1  0.5140920000000  0.4946990000000  0.4107560000000 1.0
C      1  0.4859070000000  0.5053010000000  0.4107560000000 1.0
C      1  0.4946990000000  0.4107560000000  0.5140930000000 1.0
C      1  0.5053010000000  0.4107560000000  0.4859070000000 1.0
C      1  0.4946990000000  0.5892440000000  0.4859070000000 1.0
C      1  0.4107560000000  0.4859070000000  0.5053010000000 1.0
C      1  0.5892440000000  0.4859080000000  0.4946990000000 1.0
C      1  0.4107560000000  0.5140920000000  0.4946990000000 1.0
C      1  0.4727910000000  0.5372880000000  0.4877620000000 1.0
C      1  0.4877620000000  0.4727910000000  0.5372880000000 1.0
C      1  0.5372880000000  0.4877620000000  0.4727910000000 1.0
C      1  0.5272090000000  0.4627120000000  0.4877620000000 1.0
C      1  0.5272090000000  0.5372880000000  0.5122380000000 1.0
C      1  0.4727910000000  0.4627120000000  0.5122380000000 1.0
C      1  0.5122380000000  0.5272090000000  0.5372880000000 1.0
C      1  0.5122380000000  0.4727910000000  0.4627120000000 1.0
C      1  0.4877620000000  0.5272090000000  0.4627120000000 1.0
C      1  0.4627120000000  0.5122380000000  0.4727910000000 1.0
C      1  0.4627120000000  0.4877620000000  0.5272090000000 1.0
C      1  0.5372880000000  0.5122380000000  0.5272090000000 1.0
C      1  0.5372880000000  0.4727910000000  0.4877620000000 1.0
C      1  0.4727910000000  0.4877620000000  0.5372880000000 1.0
C      1  0.4877620000000  0.5372880000000  0.4727910000000 1.0
C      1  0.4627120000000  0.5272090000000  0.4877620000000 1.0
C      1  0.5372880000000  0.5272090000000  0.5122380000000 1.0
C      1  0.4627120000000  0.4727910000000  0.5122380000000 1.0
C      1  0.5272090000000  0.5122380000000  0.5372880000000 1.0
C      1  0.4727910000000  0.5122380000000  0.4627120000000 1.0
C      1  0.5272090000000  0.4877620000000  0.4627120000000 1.0
C      1  0.5122380000000  0.4627120000000  0.4727910000000 1.0
C      1  0.4877620000000  0.4627120000000  0.5272090000000 1.0
C      1  0.5122380000000  0.5372880000000  0.5272090000000 1.0
C      1  0.4909330000000  0.4805360000000  0.4426870000000 1.0
C      1  0.4426870000000  0.4909330000000  0.4805360000000 1.0
C      1  0.4805360000000  0.4426870000000  0.4909330000000 1.0
C      1  0.5090670000000  0.5194640000000  0.4426870000000 1.0
C      1  0.5090670000000  0.4805360000000  0.5573130000000 1.0
C      1  0.4909330000000  0.5194640000000  0.5573130000000 1.0
C      1  0.5573130000000  0.5090670000000  0.4805360000000 1.0
C      1  0.5573130000000  0.4909330000000  0.5194640000000 1.0
C      1  0.4426870000000  0.5090670000000  0.5194640000000 1.0
C      1  0.5194640000000  0.5573130000000  0.4909330000000 1.0
C      1  0.5194640000000  0.4426870000000  0.5090670000000 1.0
C      1  0.4805360000000  0.5573130000000  0.5090670000000 1.0
C      1  0.4805360000000  0.4909330000000  0.4426870000000 1.0
C      1  0.4909330000000  0.4426870000000  0.4805360000000 1.0
C      1  0.4426870000000  0.4805360000000  0.4909330000000 1.0
C      1  0.5194640000000  0.5090670000000  0.4426870000000 1.0
C      1  0.4805360000000  0.5090670000000  0.5573130000000 1.0
C      1  0.5194640000000  0.4909330000000  0.5573130000000 1.0
C      1  0.5090670000000  0.5573130000000  0.4805360000000 1.0
C      1  0.4909330000000  0.5573130000000  0.5194640000000 1.0
C      1  0.5090670000000  0.4426870000000  0.5194640000000 1.0
C      1  0.5573130000000  0.5194640000000  0.4909330000000 1.0
C      1  0.4426870000000  0.5194640000000  0.5090670000000 1.0
C      1  0.5573130000000  0.4805360000000  0.5090670000000 1.0
C      1  0.5352840000000  0.4247030000000  0.5249710000000 1.0
C      1  0.5249710000000  0.5352840000000  0.4247030000000 1.0
C      1  0.4247030000000  0.5249710000000  0.5352840000000 1.0
C      1  0.4647160000000  0.5752970000000  0.5249710000000 1.0
C      1  0.4647160000000  0.4247030000000  0.4750290000000 1.0
C      1  0.5352840000000  0.5752970000000  0.4750290000000 1.0
C      1  0.4750290000000  0.4647160000000  0.4247030000000 1.0
C      1  0.4750290000000  0.5352840000000  0.5752970000000 1.0
C      1  0.5249710000000  0.4647160000000  0.5752970000000 1.0
C      1  0.5752970000000  0.4750290000000  0.5352840000000 1.0
C      1  0.5752970000000  0.5249710000000  0.4647160000000 1.0
C      1  0.4247030000000  0.4750290000000  0.4647160000000 1.0
C      1  0.4247030000000  0.5352840000000  0.5249710000000 1.0
C      1  0.5352840000000  0.5249710000000  0.4247030000000 1.0
C      1  0.5249710000000  0.4247030000000  0.5352840000000 1.0
C      1  0.5752970000000  0.4647160000000  0.5249710000000 1.0
C      1  0.4247030000000  0.4647160000000  0.4750290000000 1.0
C      1  0.5752970000000  0.5352840000000  0.4750290000000 1.0
C      1  0.4647160000000  0.4750290000000  0.4247030000000 1.0
C      1  0.5352840000000  0.4750290000000  0.5752970000000 1.0
C      1  0.4647160000000  0.5249710000000  0.5752970000000 1.0
C      1  0.4750290000000  0.5752970000000  0.5352840000000 1.0
C      1  0.5249710000000  0.5752970000000  0.4647160000000 1.0
C      1  0.4750290000000  0.4247030000000  0.4647160000000 1.0
C      1  0.5472700000000  0.5586590000000  0.5235870000000 1.0
C      1  0.5235870000000  0.5472700000000  0.5586590000000 1.0
C      1  0.5586590000000  0.5235870000000  0.5472700000000 1.0
C      1  0.4527300000000  0.4413410000000  0.5235870000000 1.0
C      1  0.4527300000000  0.5586590000000  0.4764130000000 1.0
C      1  0.5472700000000  0.4413410000000  0.4764130000000 1.0
C      1  0.4764130000000  0.4527300000000  0.5586590000000 1.0
C      1  0.4764130000000  0.5472700000000  0.4413410000000 1.0
C      1  0.5235870000000  0.4527300000000  0.4413410000000 1.0
C      1  0.4413410000000  0.4764130000000  0.5472700000000 1.0
C      1  0.4413410000000  0.5235870000000  0.4527300000000 1.0
C      1  0.5586590000000  0.4764130000000  0.4527300000000 1.0
C      1  0.5586590000000  0.5472700000000  0.5235870000000 1.0
C      1  0.5472700000000  0.5235870000000  0.5586590000000 1.0
C      1  0.5235870000000  0.5586590000000  0.5472700000000 1.0
C      1  0.4413410000000  0.4527300000000  0.5235870000000 1.0
C      1  0.5586590000000  0.4527300000000  0.4764130000000 1.0
C      1  0.4413410000000  0.5472700000000  0.4764130000000 1.0
C      1  0.4527300000000  0.4764130000000  0.5586590000000 1.0
C      1  0.5472700000000  0.4764130000000  0.4413410000000 1.0
C      1  0.4527300000000  0.5235870000000  0.4413410000000 1.0
C      1  0.4764130000000  0.4413410000000  0.5472700000000 1.0
C      1  0.5235870000000  0.4413410000000  0.4527300000000 1.0
C      1  0.4764130000000  0.5586590000000  0.4527300000000 1.0
C      1  0.4513860000000  0.5386650000000  0.4411910000000 1.0
C      1  0.4411910000000  0.4513860000000  0.5386650000000 1.0
C      1  0.5386650000000  0.4411910000000  0.4513860000000 1.0
C      1  0.5486140000000  0.4613350000000  0.4411910000000 1.0
C      1  0.5486140000000  0.5386650000000  0.5588090000000 1.0
C      1  0.4513860000000  0.4613350000000  0.5588090000000 1.0
C      1  0.5588090000000  0.5486140000000  0.5386650000000 1.0
C      1  0.5588090000000  0.4513860000000  0.4613350000000 1.0
C      1  0.4411910000000  0.5486140000000  0.4613350000000 1.0
C      1  0.4613350000000  0.5588090000000  0.4513860000000 1.0
C      1  0.4613350000000  0.4411910000000  0.5486140000000 1.0
C      1  0.5386650000000  0.5588090000000  0.5486140000000 1.0
C      1  0.5386650000000  0.4513860000000  0.4411910000000 1.0
C      1  0.4513860000000  0.4411910000000  0.5386650000000 1.0
C      1  0.4411910000000  0.5386650000000  0.4513860000000 1.0
C      1  0.4613350000000  0.5486140000000  0.4411910000000 1.0
C      1  0.5386650000000  0.5486140000000  0.5588090000000 1.0
C      1  0.4613350000000  0.4513860000000  0.5588090000000 1.0
C      1  0.5486140000000  0.5588090000000  0.5386650000000 1.0
C      1  0.4513860000000  0.5588090000000  0.4613350000000 1.0
C      1  0.5486140000000  0.4411910000000  0.4613350000000 1.0
C      1  0.5588090000000  0.4613350000000  0.4513860000000 1.0
C      1  0.4411910000000  0.4613350000000  0.5486140000000 1.0
C      1  0.5588090000000  0.5386650000000  0.5486140000000 1.0
C      1  0.4881090000000  0.4352900000000  0.5546580000000 1.0
C      1  0.5546580000000  0.4881090000000  0.4352900000000 1.0
C      1  0.4352900000000  0.5546580000000  0.4881090000000 1.0
C      1  0.5118910000000  0.5647100000000  0.5546590000000 1.0
C      1  0.5118910000000  0.4352900000000  0.4453410000000 1.0
C      1  0.4881090000000  0.5647100000000  0.4453410000000 1.0
C      1  0.4453410000000  0.5118910000000  0.4352900000000 1.0
C      1  0.4453420000000  0.4881090000000  0.5647100000000 1.0
C      1  0.5546590000000  0.5118910000000  0.5647100000000 1.0
C      1  0.5647100000000  0.4453420000000  0.4881090000000 1.0
C      1  0.5647100000000  0.5546590000000  0.5118910000000 1.0
C      1  0.4352900000000  0.4453410000000  0.5118910000000 1.0
C      1  0.4352900000000  0.4881090000000  0.5546580000000 1.0
C      1  0.4881090000000  0.5546580000000  0.4352900000000 1.0
C      1  0.5546580000000  0.4352900000000  0.4881090000000 1.0
C      1  0.5647100000000  0.5118910000000  0.5546590000000 1.0
C      1  0.4352900000000  0.5118910000000  0.4453410000000 1.0
C      1  0.5647100000000  0.4881090000000  0.4453420000000 1.0
C      1  0.5118910000000  0.4453420000000  0.4352900000000 1.0
C      1  0.4881090000000  0.4453410000000  0.5647100000000 1.0
C      1  0.5118910000000  0.5546580000000  0.5647100000000 1.0
C      1  0.4453420000000  0.5647100000000  0.4881090000000 1.0
C      1  0.5546590000000  0.5647100000000  0.5118910000000 1.0
C      1  0.4453410000000  0.4352900000000  0.5118910000000 1.0
C      1  0.4832660000000  0.5683190000000  0.4729410000000 1.0
C      1  0.4729410000000  0.4832660000000  0.5683190000000 1.0
C      1  0.5683180000000  0.4729410000000  0.4832660000000 1.0
C      1  0.5167340000000  0.4316820000000  0.4729410000000 1.0
C      1  0.5167340000000  0.5683190000000  0.5270590000000 1.0
C      1  0.4832660000000  0.4316810000000  0.5270590000000 1.0
C      1  0.5270590000000  0.5167340000000  0.5683190000000 1.0
C      1  0.5270590000000  0.4832660000000  0.4316820000000 1.0
C      1  0.4729410000000  0.5167340000000  0.4316810000000 1.0
C      1  0.4316820000000  0.5270590000000  0.4832660000000 1.0
C      1  0.4316810000000  0.4729410000000  0.5167340000000 1.0
C      1  0.5683190000000  0.5270590000000  0.5167340000000 1.0
C      1  0.5683180000000  0.4832660000000  0.4729410000000 1.0
C      1  0.4832660000000  0.4729410000000  0.5683190000000 1.0
C      1  0.4729410000000  0.5683190000000  0.4832660000000 1.0
C      1  0.4316810000000  0.5167340000000  0.4729410000000 1.0
C      1  0.5683190000000  0.5167340000000  0.5270590000000 1.0
C      1  0.4316820000000  0.4832660000000  0.5270590000000 1.0
C      1  0.5167340000000  0.5270590000000  0.5683190000000 1.0
C      1  0.4832660000000  0.5270590000000  0.4316820000000 1.0
C      1  0.5167340000000  0.4729410000000  0.4316810000000 1.0
C      1  0.5270590000000  0.4316820000000  0.4832660000000 1.0
C      1  0.4729410000000  0.4316810000000  0.5167340000000 1.0
C      1  0.5270590000000  0.5683190000000  0.5167340000000 1.0
C      1  0.4849660000000  0.4752980000000  0.4945810000000 1.0
C      1  0.4945810000000  0.4849660000000  0.4752980000000 1.0
C      1  0.4752980000000  0.4945810000000  0.4849660000000 1.0
C      1  0.5150340000000  0.5247020000000  0.4945810000000 1.0
C      1  0.5150340000000  0.4752980000000  0.5054190000000 1.0
C      1  0.4849660000000  0.5247020000000  0.5054190000000 1.0
C      1  0.5054190000000  0.5150340000000  0.4752980000000 1.0
C      1  0.5054190000000  0.4849660000000  0.5247020000000 1.0
C      1  0.4945810000000  0.5150340000000  0.5247020000000 1.0
C      1  0.5247020000000  0.5054190000000  0.4849660000000 1.0
C      1  0.5247020000000  0.4945810000000  0.5150340000000 1.0
C      1  0.4752980000000  0.5054190000000  0.5150340000000 1.0
C      1  0.4752980000000  0.4849660000000  0.4945810000000 1.0
C      1  0.4849660000000  0.4945810000000  0.4752980000000 1.0
C      1  0.4945810000000  0.4752980000000  0.4849660000000 1.0
C      1  0.5247020000000  0.5150340000000  0.4945810000000 1.0
C      1  0.4752980000000  0.5150340000000  0.5054190000000 1.0
C      1  0.5247020000000  0.4849660000000  0.5054190000000 1.0
C      1  0.5150340000000  0.5054190000000  0.4752980000000 1.0
C      1  0.4849660000000  0.5054190000000  0.5247020000000 1.0
C      1  0.5150340000000  0.4945810000000  0.5247020000000 1.0
C      1  0.5054190000000  0.5247020000000  0.4849660000000 1.0
C      1  0.4945810000000  0.5247020000000  0.5150340000000 1.0
C      1  0.5054190000000  0.4752980000000  0.5150340000000 1.0
C      1  0.5208690000000  0.5311410000000  0.4589150000000 1.0
C      1  0.4589150000000  0.5208690000000  0.5311410000000 1.0
C      1  0.5311410000000  0.4589150000000  0.5208690000000 1.0
C      1  0.4791310000000  0.4688590000000  0.4589150000000 1.0
C      1  0.4791310000000  0.5311410000000  0.5410850000000 1.0
C      1  0.5208690000000  0.4688590000000  0.5410850000000 1.0
C      1  0.5410850000000  0.4791310000000  0.5311410000000 1.0
C      1  0.5410850000000  0.5208690000000  0.4688590000000 1.0
C      1  0.4589150000000  0.4791310000000  0.4688590000000 1.0
C      1  0.4688590000000  0.5410850000000  0.5208690000000 1.0
C      1  0.4688590000000  0.4589150000000  0.4791310000000 1.0
C      1  0.5311410000000  0.5410850000000  0.4791310000000 1.0
C      1  0.5311410000000  0.5208690000000  0.4589150000000 1.0
C      1  0.5208690000000  0.4589150000000  0.5311410000000 1.0
C      1  0.4589150000000  0.5311410000000  0.5208690000000 1.0
C      1  0.4688590000000  0.4791310000000  0.4589150000000 1.0
C      1  0.5311410000000  0.4791310000000  0.5410850000000 1.0
C      1  0.4688590000000  0.5208690000000  0.5410850000000 1.0
C      1  0.4791310000000  0.5410850000000  0.5311410000000 1.0
C      1  0.5208690000000  0.5410850000000  0.4688590000000 1.0
C      1  0.4791310000000  0.4589150000000  0.4688590000000 1.0
C      1  0.5410850000000  0.4688590000000  0.5208690000000 1.0
C      1  0.4589150000000  0.4688590000000  0.4791310000000 1.0
C      1  0.5410850000000  0.5311410000000  0.4791310000000 1.0
C      1  0.4154260000000  0.5255540000000  0.5018200000000 1.0
C      1  0.5018200000000  0.4154260000000  0.5255540000000 1.0
C      1  0.5255540000000  0.5018200000000  0.4154260000000 1.0
C      1  0.5845740000000  0.4744460000000  0.5018200000000 1.0
C      1  0.5845740000000  0.5255540000000  0.4981800000000 1.0
C      1  0.4154260000000  0.4744450000000  0.4981800000000 1.0
C      1  0.4981800000000  0.5845740000000  0.5255540000000 1.0
C      1  0.4981800000000  0.4154260000000  0.4744460000000 1.0
C      1  0.5018200000000  0.5845740000000  0.4744460000000 1.0
C      1  0.4744460000000  0.4981800000000  0.4154260000000 1.0
C      1  0.4744460000000  0.5018200000000  0.5845740000000 1.0
C      1  0.5255540000000  0.4981800000000  0.5845740000000 1.0
C      1  0.5255540000000  0.4154260000000  0.5018200000000 1.0
C      1  0.4154260000000  0.5018200000000  0.5255540000000 1.0
C      1  0.5018200000000  0.5255540000000  0.4154260000000 1.0
C      1  0.4744460000000  0.5845740000000  0.5018200000000 1.0
C      1  0.5255540000000  0.5845740000000  0.4981800000000 1.0
C      1  0.4744460000000  0.4154260000000  0.4981800000000 1.0
C      1  0.5845740000000  0.4981800000000  0.5255540000000 1.0
C      1  0.4154260000000  0.4981800000000  0.4744460000000 1.0
C      1  0.5845740000000  0.5018200000000  0.4744460000000 1.0
C      1  0.4981800000000  0.4744460000000  0.4154260000000 1.0
C      1  0.5018200000000  0.4744460000000  0.5845740000000 1.0
C      1  0.4981800000000  0.5255540000000  0.5845740000000 1.0
C      1  0.5057590000000  0.5336790000000  0.5751450000000 1.0
C      1  0.5751450000000  0.5057590000000  0.5336790000000 1.0
C      1  0.5336790000000  0.5751450000000  0.5057590000000 1.0
C      1  0.4942410000000  0.4663210000000  0.5751450000000 1.0
C      1  0.4942410000000  0.5336790000000  0.4248550000000 1.0
C      1  0.5057590000000  0.4663210000000  0.4248550000000 1.0
C      1  0.4248550000000  0.4942410000000  0.5336790000000 1.0
C      1  0.4248550000000  0.5057590000000  0.4663210000000 1.0
C      1  0.5751450000000  0.4942410000000  0.4663210000000 1.0
C      1  0.4663210000000  0.4248550000000  0.5057590000000 1.0
C      1  0.4663210000000  0.5751450000000  0.4942410000000 1.0
C      1  0.5336790000000  0.4248550000000  0.4942410000000 1.0
C      1  0.5336790000000  0.5057590000000  0.5751450000000 1.0
C      1  0.5057590000000  0.5751450000000  0.5336790000000 1.0
C      1  0.5751450000000  0.5336790000000  0.5057590000000 1.0
C      1  0.4663210000000  0.4942410000000  0.5751450000000 1.0
C      1  0.5336790000000  0.4942410000000  0.4248550000000 1.0
C      1  0.4663210000000  0.5057590000000  0.4248550000000 1.0
C      1  0.4942410000000  0.4248550000000  0.5336790000000 1.0
C      1  0.5057590000000  0.4248550000000  0.4663210000000 1.0
C      1  0.4942410000000  0.5751450000000  0.4663210000000 1.0
C      1  0.4248550000000  0.4663210000000  0.5057590000000 1.0
C      1  0.5751450000000  0.4663210000000  0.4942410000000 1.0
C      1  0.4248550000000  0.5336790000000  0.4942410000000 1.0
C      1  0.5268040000000  0.4162820000000  0.5163980000000 1.0
C      1  0.5163980000000  0.5268040000000  0.4162820000000 1.0
C      1  0.4162820000000  0.5163980000000  0.5268040000000 1.0
C      1  0.4731960000000  0.5837180000000  0.5163980000000 1.0
C      1  0.4731960000000  0.4162820000000  0.4836020000000 1.0
C      1  0.5268040000000  0.5837180000000  0.4836020000000 1.0
C      1  0.4836020000000  0.4731960000000  0.4162820000000 1.0
C      1  0.4836020000000  0.5268040000000  0.5837180000000 1.0
C      1  0.5163980000000  0.4731960000000  0.5837180000000 1.0
C      1  0.5837180000000  0.4836020000000  0.5268040000000 1.0
C      1  0.5837180000000  0.5163980000000  0.4731960000000 1.0
C      1  0.4162820000000  0.4836020000000  0.4731960000000 1.0
C      1  0.4162820000000  0.5268040000000  0.5163980000000 1.0
C      1  0.5268040000000  0.5163980000000  0.4162820000000 1.0
C      1  0.5163980000000  0.4162820000000  0.5268040000000 1.0
C      1  0.5837180000000  0.4731960000000  0.5163980000000 1.0
C      1  0.4162820000000  0.4731960000000  0.4836020000000 1.0
C      1  0.5837180000000  0.5268040000000  0.4836020000000 1.0
C      1  0.4731960000000  0.4836020000000  0.4162820000000 1.0
C      1  0.5268040000000  0.4836020000000  0.5837180000000 1.0
C      1  0.4731960000000  0.5163980000000  0.5837180000000 1.0
C      1  0.4836020000000  0.5837180000000  0.5268040000000 1.0
C      1  0.5163980000000  0.5837180000000  0.4731960000000 1.0
C      1  0.4836020000000  0.4162820000000  0.4731960000000 1.0
C      1  0.5351740000000  0.5043250000000  0.5149820000000 1.0
C      1  0.5149820000000  0.5351740000000  0.5043250000000 1.0
C      1  0.5043250000000  0.5149820000000  0.5351740000000 1.0
C      1  0.4648260000000  0.4956750000000  0.5149820000000 1.0
C      1  0.4648260000000  0.5043250000000  0.4850180000000 1.0
C      1  0.5351740000000  0.4956750000000  0.4850180000000 1.0
C      1  0.4850180000000  0.4648260000000  0.5043250000000 1.0
C      1  0.4850180000000  0.5351740000000  0.4956750000000 1.0
C      1  0.5149820000000  0.4648260000000  0.4956750000000 1.0
C      1  0.4956750000000  0.4850180000000  0.5351740000000 1.0
C      1  0.4956750000000  0.5149820000000  0.4648260000000 1.0
C      1  0.5043250000000  0.4850180000000  0.4648260000000 1.0
C      1  0.5043250000000  0.5351740000000  0.5149820000000 1.0
C      1  0.5351740000000  0.5149820000000  0.5043250000000 1.0
C      1  0.5149820000000  0.5043250000000  0.5351740000000 1.0
C      1  0.4956750000000  0.4648260000000  0.5149820000000 1.0
C      1  0.5043250000000  0.4648260000000  0.4850180000000 1.0
C      1  0.4956750000000  0.5351740000000  0.4850180000000 1.0
C      1  0.4648260000000  0.4850180000000  0.5043250000000 1.0
C      1  0.5351740000000  0.4850180000000  0.4956750000000 1.0
C      1  0.4648260000000  0.5149820000000  0.4956750000000 1.0
C      1  0.4850180000000  0.4956750000000  0.5351740000000 1.0
C      1  0.5149820000000  0.4956750000000  0.4648260000000 1.0
C      1  0.4850180000000  0.5043250000000  0.4648260000000 1.0
C      1  0.5342050000000  0.4821890000000  0.4445720000000 1.0
C      1  0.4445720000000  0.5342050000000  0.4821890000000 1.0
C      1  0.4821890000000  0.4445720000000  0.5342050000000 1.0
C      1  0.4657950000000  0.5178110000000  0.4445720000000 1.0
C      1  0.4657950000000  0.4821890000000  0.5554280000000 1.0
C      1  0.5342050000000  0.5178110000000  0.5554280000000 1.0
C      1  0.5554280000000  0.4657950000000  0.4821890000000 1.0
C      1  0.5554280000000  0.5342050000000  0.5178110000000 1.0
C      1  0.4445720000000  0.4657950000000  0.5178110000000 1.0
C      1  0.5178110000000  0.5554280000000  0.5342050000000 1.0
C      1  0.5178110000000  0.4445720000000  0.4657950000000 1.0
C      1  0.4821890000000  0.5554280000000  0.4657950000000 1.0
C      1  0.4821890000000  0.5342050000000  0.4445720000000 1.0
C      1  0.5342050000000  0.4445720000000  0.4821890000000 1.0
C      1  0.4445720000000  0.4821890000000  0.5342050000000 1.0
C      1  0.5178110000000  0.4657950000000  0.4445720000000 1.0
C      1  0.4821890000000  0.4657950000000  0.5554280000000 1.0
C      1  0.5178110000000  0.5342050000000  0.5554280000000 1.0
C      1  0.4657950000000  0.5554280000000  0.4821890000000 1.0
C      1  0.5342050000000  0.5554280000000  0.5178110000000 1.0
C      1  0.4657950000000  0.4445720000000  0.5178110000000 1.0
C      1  0.5554280000000  0.5178110000000  0.5342050000000 1.0
C      1  0.4445720000000  0.5178110000000  0.4657950000000 1.0
C      1  0.5554280000000  0.4821890000000  0.4657950000000 1.0
C      1  0.4505520000000  0.5107300000000  0.4999390000000 1.0
C      1  0.4999390000000  0.4505520000000  0.5107300000000 1.0
C      1  0.5107300000000  0.4999390000000  0.4505520000000 1.0
C      1  0.5494480000000  0.4892700000000  0.4999390000000 1.0
C      1  0.5494480000000  0.5107300000000  0.5000610000000 1.0
C      1  0.4505520000000  0.4892700000000  0.5000610000000 1.0
C      1  0.5000610000000  0.5494480000000  0.5107300000000 1.0
C      1  0.5000610000000  0.4505520000000  0.4892700000000 1.0
C      1  0.4999390000000  0.5494480000000  0.4892700000000 1.0
C      1  0.4892700000000  0.5000610000000  0.4505520000000 1.0
C      1  0.4892700000000  0.4999390000000  0.5494480000000 1.0
C      1  0.5107300000000  0.5000610000000  0.5494480000000 1.0
C      1  0.5107300000000  0.4505520000000  0.4999390000000 1.0
C      1  0.4505520000000  0.4999390000000  0.5107300000000 1.0
C      1  0.4999390000000  0.5107300000000  0.4505520000000 1.0
C      1  0.4892700000000  0.5494480000000  0.4999390000000 1.0
C      1  0.5107300000000  0.5494480000000  0.5000610000000 1.0
C      1  0.4892700000000  0.4505520000000  0.5000610000000 1.0
C      1  0.5494480000000  0.5000610000000  0.5107300000000 1.0
C      1  0.4505520000000  0.5000610000000  0.4892700000000 1.0
C      1  0.5494480000000  0.4999390000000  0.4892700000000 1.0
C      1  0.5000610000000  0.4892700000000  0.4505520000000 1.0
C      1  0.4999390000000  0.4892700000000  0.5494480000000 1.0
C      1  0.5000610000000  0.5107300000000  0.5494480000000 1.0
C      1  0.5579480000000  0.5476640000000  0.4627700000000 1.0
C      1  0.4627700000000  0.5579480000000  0.5476640000000 1.0
C      1  0.5476640000000  0.4627700000000  0.5579480000000 1.0
C      1  0.4420520000000  0.4523360000000  0.4627700000000 1.0
C      1  0.4420520000000  0.5476640000000  0.5372300000000 1.0
C      1  0.5579480000000  0.4523360000000  0.5372300000000 1.0
C      1  0.5372300000000  0.4420520000000  0.5476640000000 1.0
C      1  0.5372300000000  0.5579480000000  0.4523360000000 1.0
C      1  0.4627700000000  0.4420520000000  0.4523360000000 1.0
C      1  0.4523360000000  0.5372300000000  0.5579480000000 1.0
C      1  0.4523360000000  0.4627700000000  0.4420520000000 1.0
C      1  0.5476640000000  0.5372300000000  0.4420520000000 1.0
C      1  0.5476640000000  0.5579480000000  0.4627700000000 1.0
C      1  0.5579480000000  0.4627700000000  0.5476640000000 1.0
C      1  0.4627700000000  0.5476640000000  0.5579480000000 1.0
C      1  0.4523360000000  0.4420520000000  0.4627700000000 1.0
C      1  0.5476640000000  0.4420520000000  0.5372300000000 1.0
C      1  0.4523360000000  0.5579480000000  0.5372300000000 1.0
C      1  0.4420520000000  0.5372300000000  0.5476640000000 1.0
C      1  0.5579480000000  0.5372300000000  0.4523360000000 1.0
C      1  0.4420520000000  0.4627700000000  0.4523360000000 1.0
C      1  0.5372300000000  0.4523360000000  0.5579480000000 1.0
C      1  0.4627700000000  0.4523360000000  0.4420520000000 1.0
C      1  0.5372300000000  0.5476640000000  0.4420520000000 1.0
C      1  0.4535610000000  0.4310300000000  0.5011210000000 1.0
C      1  0.5011210000000  0.4535610000000  0.4310300000000 1.0
C      1  0.4310300000000  0.5011210000000  0.4535610000000 1.0
C      1  0.5464390000000  0.5689700000000  0.5011210000000 1.0
C      1  0.5464390000000  0.4310300000000  0.4988790000000 1.0
C      1  0.4535610000000  0.5689700000000  0.4988790000000 1.0
C      1  0.4988790000000  0.5464390000000  0.4310300000000 1.0
C      1  0.4988790000000  0.4535610000000  0.5689700000000 1.0
C      1  0.5011210000000  0.5464390000000  0.5689700000000 1.0
C      1  0.5689700000000  0.4988790000000  0.4535610000000 1.0
C      1  0.5689700000000  0.5011210000000  0.5464390000000 1.0
C      1  0.4310300000000  0.4988790000000  0.5464390000000 1.0
C      1  0.4310300000000  0.4535610000000  0.5011210000000 1.0
C      1  0.4535610000000  0.5011210000000  0.4310300000000 1.0
C      1  0.5011210000000  0.4310300000000  0.4535610000000 1.0
C      1  0.5689700000000  0.5464390000000  0.5011210000000 1.0
C      1  0.4310300000000  0.5464390000000  0.4988790000000 1.0
C      1  0.5689700000000  0.4535610000000  0.4988790000000 1.0
C      1  0.5464390000000  0.4988790000000  0.4310300000000 1.0
C      1  0.4535610000000  0.4988790000000  0.5689700000000 1.0
C      1  0.5464390000000  0.5011210000000  0.5689700000000 1.0
C      1  0.4988790000000  0.5689700000000  0.4535610000000 1.0
C      1  0.5011210000000  0.5689700000000  0.5464390000000 1.0
C      1  0.4988790000000  0.4310300000000  0.5464390000000 1.0
C      1  0.5456770000000  0.5250070000000  0.4343430000000 1.0
C      1  0.4343430000000  0.5456770000000  0.5250070000000 1.0
C      1  0.5250070000000  0.4343430000000  0.5456770000000 1.0
C      1  0.4543230000000  0.4749930000000  0.4343430000000 1.0
C      1  0.4543230000000  0.5250070000000  0.5656570000000 1.0
C      1  0.5456770000000  0.4749930000000  0.5656570000000 1.0
C      1  0.5656570000000  0.4543230000000  0.5250070000000 1.0
C      1  0.5656570000000  0.5456770000000  0.4749930000000 1.0
C      1  0.4343430000000  0.4543230000000  0.4749930000000 1.0
C      1  0.4749930000000  0.5656570000000  0.5456770000000 1.0
C      1  0.4749930000000  0.4343430000000  0.4543230000000 1.0
C      1  0.5250070000000  0.5656570000000  0.4543230000000 1.0
C      1  0.5250070000000  0.5456770000000  0.4343430000000 1.0
C      1  0.5456770000000  0.4343430000000  0.5250070000000 1.0
C      1  0.4343430000000  0.5250070000000  0.5456770000000 1.0
C      1  0.4749930000000  0.4543230000000  0.4343430000000 1.0
C      1  0.5250070000000  0.4543230000000  0.5656570000000 1.0
C      1  0.4749930000000  0.5456770000000  0.5656570000000 1.0
C      1  0.4543230000000  0.5656570000000  0.5250070000000 1.0
C      1  0.5456770000000  0.5656570000000  0.4749930000000 1.0
C      1  0.4543230000000  0.4343430000000  0.4749930000000 1.0
C      1  0.5656570000000  0.4749930000000  0.5456770000000 1.0
C      1  0.4343430000000  0.4749930000000  0.4543230000000 1.0
C      1  0.5656570000000  0.5250070000000  0.4543230000000 1.0
C      1  0.4549390000000  0.4747990000000  0.5252010000000 1.0
C      1  0.5450610000000  0.5252010000000  0.5252010000000 1.0
C      1  0.4549390000000  0.5252010000000  0.4747990000000 1.0
C      1  0.5450610000000  0.4747990000000  0.4747990000000 1.0
C      1  0.4747990000000  0.4549390000000  0.5252010000000 1.0
C      1  0.4747990000000  0.5450610000000  0.4747990000000 1.0
C      1  0.5252010000000  0.4549390000000  0.4747990000000 1.0
C      1  0.4747990000000  0.4747990000000  0.5450610000000 1.0
C      1  0.4747990000000  0.5252010000000  0.4549390000000 1.0
C      1  0.5252010000000  0.4747990000000  0.4549390000000 1.0
C      1  0.5252010000000  0.5450610000000  0.5252010000000 1.0
C      1  0.5252010000000  0.5252010000000  0.5450610000000 1.0
END
