TITL C-1892077-1691-79 -1.34359188047559e-07 1000000 -1301.3631677886 0 0 200 (Th) n - 1
REM
REM in /nfs/bkarasulu/CARBON/AIRSS/Generating-Clusters/GAP-ML-2020/Higher-Symm/Selected-Sizes/TryA-Only_Ih-Symm/Larger-Clusters
REM
REM
REM
REM
REM
REM ./C.cell (2cf5181f0f1d4d5b12b972d32ad12063)
REM
REM compiler GCC version 9.2.1 20190827 (Red Hat 9.2.1-1)
REM options -cpp -mtune=generic -march=x86-64 -g -O0 -fpre-include=/usr/include/finclude/math-vector-fortran.h
REM seed -1280900249 -1979981172 -1640790642 1184961964 1027654664 850990558 1177564312 440924758 1365868752 -1124722018 -1840830080 -902906790 -842813443 -382192652 1415506249 551891955 -938115874 1781281255 649609044 106103166 765675983 -1846446390 -1674772620 -296889528 -119121327 748365589 -884405661 -405263865 -1479130947 -1397588596 -1164194345 728989425 -109839416
REM
CELL 1.54180  100.00000  100.00000  100.00000   90.00000   90.00000   90.00000
LATT -1
SFAC C  
C      1  0.4582740000000  0.4929040000000  0.5610110000000 1.0
C      1  0.4929780000000  0.5609760000000  0.4582360000000 1.0
C      1  0.5610500000000  0.4582010000000  0.4929390000000 1.0
C      1  0.5417960000000  0.5070190000000  0.5610110000000 1.0
C      1  0.4582740000000  0.5070190000000  0.4389820000000 1.0
C      1  0.5417960000000  0.4929040000000  0.4389820000000 1.0
C      1  0.5070930000000  0.4389470000000  0.4582360000000 1.0
C      1  0.4929780000000  0.4389470000000  0.5417570000000 1.0
C      1  0.5070930000000  0.5609760000000  0.5417570000000 1.0
C      1  0.4390200000000  0.5417220000000  0.4929390000000 1.0
C      1  0.5610500000000  0.5417220000000  0.5070540000000 1.0
C      1  0.4390200000000  0.4582010000000  0.5070540000000 1.0
C      1  0.4582740000000  0.4929040000000  0.4389820000000 1.0
C      1  0.4929780000000  0.5609760000000  0.5417570000000 1.0
C      1  0.5610500000000  0.4582010000000  0.5070540000000 1.0
C      1  0.5417960000000  0.5070190000000  0.4389820000000 1.0
C      1  0.4582740000000  0.5070190000000  0.5610110000000 1.0
C      1  0.5417960000000  0.4929040000000  0.5610110000000 1.0
C      1  0.5070930000000  0.4389470000000  0.5417570000000 1.0
C      1  0.4929780000000  0.4389470000000  0.4582360000000 1.0
C      1  0.5070930000000  0.5609760000000  0.4582360000000 1.0
C      1  0.4390200000000  0.5417220000000  0.5070540000000 1.0
C      1  0.5610500000000  0.5417220000000  0.4929390000000 1.0
C      1  0.4390200000000  0.4582010000000  0.4929390000000 1.0
C      1  0.4501880000000  0.5398130000000  0.5151020000000 1.0
C      1  0.5398870000000  0.5150670000000  0.4501500000000 1.0
C      1  0.5151410000000  0.4501150000000  0.5398480000000 1.0
C      1  0.5498820000000  0.4601100000000  0.5151020000000 1.0
C      1  0.4501880000000  0.4601100000000  0.4848910000000 1.0
C      1  0.5498820000000  0.5398130000000  0.4848910000000 1.0
C      1  0.4601840000000  0.4848560000000  0.4501500000000 1.0
C      1  0.5398860000000  0.4848560000000  0.5498440000000 1.0
C      1  0.4601840000000  0.5150670000000  0.5498440000000 1.0
C      1  0.4849300000000  0.5498090000000  0.5398480000000 1.0
C      1  0.5151410000000  0.5498090000000  0.4601450000000 1.0
C      1  0.4849290000000  0.4501150000000  0.4601450000000 1.0
C      1  0.4501880000000  0.5398130000000  0.4848910000000 1.0
C      1  0.5398860000000  0.5150670000000  0.5498440000000 1.0
C      1  0.5151410000000  0.4501150000000  0.4601450000000 1.0
C      1  0.5498820000000  0.4601100000000  0.4848910000000 1.0
C      1  0.4501880000000  0.4601100000000  0.5151020000000 1.0
C      1  0.5498820000000  0.5398130000000  0.5151020000000 1.0
C      1  0.4601840000000  0.4848560000000  0.5498440000000 1.0
C      1  0.5398870000000  0.4848560000000  0.4501500000000 1.0
C      1  0.4601840000000  0.5150670000000  0.4501500000000 1.0
C      1  0.4849290000000  0.5498090000000  0.4601450000000 1.0
C      1  0.5151410000000  0.5498090000000  0.5398480000000 1.0
C      1  0.4849300000000  0.4501150000000  0.5398480000000 1.0
C      1  0.5245820000000  0.5855560000000  0.4739600000000 1.0
C      1  0.5856300000000  0.4739250000000  0.5245440000000 1.0
C      1  0.4739990000000  0.5245090000000  0.5855910000000 1.0
C      1  0.4754880000000  0.4143670000000  0.4739600000000 1.0
C      1  0.5245820000000  0.4143670000000  0.5260330000000 1.0
C      1  0.4754880000000  0.5855560000000  0.5260330000000 1.0
C      1  0.4144400000000  0.5259980000000  0.5245440000000 1.0
C      1  0.5856300000000  0.5259980000000  0.4754490000000 1.0
C      1  0.4144400000000  0.4739250000000  0.4754490000000 1.0
C      1  0.5260720000000  0.4754140000000  0.5855910000000 1.0
C      1  0.4739990000000  0.4754140000000  0.4144020000000 1.0
C      1  0.5260720000000  0.5245090000000  0.4144020000000 1.0
C      1  0.5245820000000  0.5855560000000  0.5260330000000 1.0
C      1  0.5856300000000  0.4739250000000  0.4754490000000 1.0
C      1  0.4739990000000  0.5245090000000  0.4144020000000 1.0
C      1  0.4754880000000  0.4143670000000  0.5260330000000 1.0
C      1  0.5245820000000  0.4143670000000  0.4739600000000 1.0
C      1  0.4754880000000  0.5855560000000  0.4739600000000 1.0
C      1  0.4144400000000  0.5259980000000  0.4754490000000 1.0
C      1  0.5856300000000  0.5259980000000  0.5245440000000 1.0
C      1  0.4144400000000  0.4739250000000  0.5245440000000 1.0
C      1  0.5260720000000  0.4754140000000  0.4144020000000 1.0
C      1  0.4739990000000  0.4754140000000  0.5855910000000 1.0
C      1  0.5260720000000  0.5245090000000  0.5855910000000 1.0
C      1  0.5324870000000  0.4667170000000  0.4378110000000 1.0
C      1  0.4667900000000  0.4377760000000  0.5324480000000 1.0
C      1  0.4378500000000  0.5324130000000  0.4667520000000 1.0
C      1  0.4675830000000  0.5332070000000  0.4378110000000 1.0
C      1  0.5324870000000  0.5332070000000  0.5621820000000 1.0
C      1  0.4675830000000  0.4667170000000  0.5621820000000 1.0
C      1  0.5332800000000  0.5621470000000  0.5324480000000 1.0
C      1  0.4667900000000  0.5621470000000  0.4675450000000 1.0
C      1  0.5332800000000  0.4377760000000  0.4675450000000 1.0
C      1  0.5622200000000  0.4675100000000  0.4667520000000 1.0
C      1  0.4378500000000  0.4675100000000  0.5332420000000 1.0
C      1  0.5622200000000  0.5324130000000  0.5332420000000 1.0
C      1  0.5324870000000  0.4667170000000  0.5621820000000 1.0
C      1  0.4667900000000  0.4377760000000  0.4675450000000 1.0
C      1  0.4378500000000  0.5324130000000  0.5332420000000 1.0
C      1  0.4675830000000  0.5332070000000  0.5621820000000 1.0
C      1  0.5324870000000  0.5332070000000  0.4378110000000 1.0
C      1  0.4675830000000  0.4667170000000  0.4378110000000 1.0
C      1  0.5332800000000  0.5621470000000  0.4675450000000 1.0
C      1  0.4667900000000  0.5621470000000  0.5324480000000 1.0
C      1  0.5332800000000  0.4377760000000  0.5324480000000 1.0
C      1  0.5622200000000  0.4675100000000  0.5332420000000 1.0
C      1  0.4378500000000  0.4675100000000  0.4667520000000 1.0
C      1  0.5622200000000  0.5324130000000  0.4667520000000 1.0
C      1  0.5402840000000  0.5061960000000  0.5388910000000 1.0
C      1  0.5062690000000  0.5388560000000  0.5402460000000 1.0
C      1  0.5389300000000  0.5402110000000  0.5062310000000 1.0
C      1  0.4597860000000  0.4937270000000  0.5388910000000 1.0
C      1  0.5402840000000  0.4937270000000  0.4611020000000 1.0
C      1  0.4597860000000  0.5061960000000  0.4611020000000 1.0
C      1  0.4938010000000  0.4610670000000  0.5402460000000 1.0
C      1  0.5062690000000  0.4610670000000  0.4597470000000 1.0
C      1  0.4938010000000  0.5388560000000  0.4597470000000 1.0
C      1  0.4611400000000  0.4597120000000  0.5062310000000 1.0
C      1  0.5389300000000  0.4597120000000  0.4937620000000 1.0
C      1  0.4611400000000  0.5402110000000  0.4937620000000 1.0
C      1  0.5402840000000  0.5061960000000  0.4611020000000 1.0
C      1  0.5062690000000  0.5388560000000  0.4597470000000 1.0
C      1  0.5389300000000  0.5402110000000  0.4937620000000 1.0
C      1  0.4597860000000  0.4937270000000  0.4611020000000 1.0
C      1  0.5402840000000  0.4937270000000  0.5388910000000 1.0
C      1  0.4597860000000  0.5061960000000  0.5388910000000 1.0
C      1  0.4938010000000  0.4610670000000  0.4597470000000 1.0
C      1  0.5062690000000  0.4610670000000  0.5402460000000 1.0
C      1  0.4938010000000  0.5388560000000  0.5402460000000 1.0
C      1  0.4611400000000  0.4597120000000  0.4937620000000 1.0
C      1  0.5389300000000  0.4597120000000  0.5062310000000 1.0
C      1  0.4611400000000  0.5402110000000  0.5062310000000 1.0
C      1  0.4696960000000  0.4259510000000  0.4712450000000 1.0
C      1  0.4260250000000  0.4712100000000  0.4696570000000 1.0
C      1  0.4712830000000  0.4696220000000  0.4259860000000 1.0
C      1  0.5303740000000  0.5739720000000  0.4712450000000 1.0
C      1  0.4696960000000  0.5739720000000  0.5287490000000 1.0
C      1  0.5303740000000  0.4259510000000  0.5287490000000 1.0
C      1  0.5740450000000  0.5287140000000  0.4696570000000 1.0
C      1  0.4260250000000  0.5287140000000  0.5303360000000 1.0
C      1  0.5740450000000  0.4712100000000  0.5303360000000 1.0
C      1  0.5287870000000  0.5303010000000  0.4259860000000 1.0
C      1  0.4712830000000  0.5303010000000  0.5740070000000 1.0
C      1  0.5287870000000  0.4696220000000  0.5740070000000 1.0
C      1  0.4696960000000  0.4259510000000  0.5287490000000 1.0
C      1  0.4260250000000  0.4712100000000  0.5303360000000 1.0
C      1  0.4712830000000  0.4696220000000  0.5740070000000 1.0
C      1  0.5303740000000  0.5739720000000  0.5287490000000 1.0
C      1  0.4696960000000  0.5739720000000  0.4712450000000 1.0
C      1  0.5303740000000  0.4259510000000  0.4712450000000 1.0
C      1  0.5740450000000  0.5287140000000  0.5303360000000 1.0
C      1  0.4260250000000  0.5287140000000  0.4696570000000 1.0
C      1  0.5740450000000  0.4712100000000  0.4696570000000 1.0
C      1  0.5287870000000  0.5303010000000  0.5740070000000 1.0
C      1  0.4712830000000  0.5303010000000  0.4259860000000 1.0
C      1  0.5287870000000  0.4696220000000  0.4259860000000 1.0
C      1  0.4501620000000  0.5366450000000  0.5295430000000 1.0
C      1  0.5367180000000  0.5295080000000  0.4501230000000 1.0
C      1  0.5295820000000  0.4500880000000  0.5366800000000 1.0
C      1  0.5499080000000  0.4632780000000  0.5295430000000 1.0
C      1  0.4501620000000  0.4632780000000  0.4704500000000 1.0
C      1  0.5499080000000  0.5366450000000  0.4704500000000 1.0
C      1  0.4633520000000  0.4704150000000  0.4501230000000 1.0
C      1  0.5367180000000  0.4704150000000  0.5498700000000 1.0
C      1  0.4633520000000  0.5295080000000  0.5498700000000 1.0
C      1  0.4704880000000  0.5498350000000  0.5366800000000 1.0
C      1  0.5295820000000  0.5498350000000  0.4633130000000 1.0
C      1  0.4704880000000  0.4500880000000  0.4633130000000 1.0
C      1  0.4501620000000  0.5366450000000  0.4704500000000 1.0
C      1  0.5367180000000  0.5295080000000  0.5498700000000 1.0
C      1  0.5295820000000  0.4500880000000  0.4633130000000 1.0
C      1  0.5499080000000  0.4632780000000  0.4704500000000 1.0
C      1  0.4501620000000  0.4632780000000  0.5295430000000 1.0
C      1  0.5499080000000  0.5366450000000  0.5295430000000 1.0
C      1  0.4633520000000  0.4704150000000  0.5498700000000 1.0
C      1  0.5367180000000  0.4704150000000  0.4501230000000 1.0
C      1  0.4633520000000  0.5295080000000  0.4501230000000 1.0
C      1  0.4704880000000  0.5498350000000  0.4633130000000 1.0
C      1  0.5295820000000  0.5498350000000  0.5366800000000 1.0
C      1  0.4704880000000  0.4500880000000  0.5366800000000 1.0
C      1  0.4245280000000  0.5443330000000  0.4931280000000 1.0
C      1  0.5444070000000  0.4930920000000  0.4244900000000 1.0
C      1  0.4931660000000  0.4244550000000  0.5443680000000 1.0
C      1  0.5755420000000  0.4555900000000  0.4931280000000 1.0
C      1  0.4245280000000  0.4555900000000  0.5068660000000 1.0
C      1  0.5755420000000  0.5443330000000  0.5068660000000 1.0
C      1  0.4556630000000  0.5068310000000  0.4244900000000 1.0
C      1  0.5444070000000  0.5068310000000  0.5755040000000 1.0
C      1  0.4556630000000  0.4930920000000  0.5755040000000 1.0
C      1  0.5069040000000  0.5754690000000  0.5443680000000 1.0
C      1  0.4931660000000  0.5754690000000  0.4556250000000 1.0
C      1  0.5069040000000  0.4244550000000  0.4556250000000 1.0
C      1  0.4245280000000  0.5443330000000  0.5068660000000 1.0
C      1  0.5444070000000  0.4930920000000  0.5755040000000 1.0
C      1  0.4931660000000  0.4244550000000  0.4556250000000 1.0
C      1  0.5755420000000  0.4555900000000  0.5068660000000 1.0
C      1  0.4245280000000  0.4555900000000  0.4931280000000 1.0
C      1  0.5755420000000  0.5443330000000  0.4931280000000 1.0
C      1  0.4556630000000  0.5068310000000  0.5755040000000 1.0
C      1  0.5444070000000  0.5068310000000  0.4244900000000 1.0
C      1  0.4556630000000  0.4930920000000  0.4244900000000 1.0
C      1  0.5069040000000  0.5754690000000  0.4556250000000 1.0
C      1  0.4931660000000  0.5754690000000  0.5443680000000 1.0
C      1  0.5069040000000  0.4244550000000  0.5443680000000 1.0
C      1  0.5379870000000  0.4620090000000  0.5379490000000 1.0
C      1  0.4620830000000  0.5379140000000  0.5379490000000 1.0
C      1  0.5379870000000  0.5379140000000  0.4620440000000 1.0
C      1  0.5379870000000  0.4620090000000  0.4620440000000 1.0
C      1  0.4620830000000  0.5379140000000  0.4620440000000 1.0
C      1  0.4620830000000  0.4620090000000  0.5379490000000 1.0
C      1  0.4620830000000  0.4620090000000  0.4620440000000 1.0
C      1  0.5379870000000  0.5379140000000  0.5379490000000 1.0
END
