TITL C-1892078-2854-87 -1.78411480657384e-06 1000000 -3894.02537116172 0 0 560 (Th) n - 1
REM
REM in /nfs/bkarasulu/CARBON/AIRSS/Generating-Clusters/GAP-ML-2020/Higher-Symm/Selected-Sizes/TryA-Only_Ih-Symm/Larger-Clusters
REM
REM
REM
REM
REM
REM ./C.cell (2cf5181f0f1d4d5b12b972d32ad12063)
REM
REM compiler GCC version 9.2.1 20190827 (Red Hat 9.2.1-1)
REM options -cpp -mtune=generic -march=x86-64 -g -O0 -fpre-include=/usr/include/finclude/math-vector-fortran.h
REM seed 1792205786 278212675 1594002179 -280777273 -1263100134 1724574285 1301561629 1573448088 1529251268 -1088283882 1952872092 1833784814 -1727062023 272522330 -1724989758 -1560166895 -760584006 -1389221424 1126951667 -1916868491 1136513206 -422058336 1714654745 -1069300503 -192547344 -1510878466 575969884 206614830 -707960099 -878146035 -1254545611 -1272451359 535961533
REM
CELL 1.54180  100.00000  100.00000  100.00000   90.00000   90.00000   90.00000
LATT -1
SFAC C  
C      1  0.4298490000000  0.4483080000000  0.5079130000000 1.0
C      1  0.4484250000000  0.5077680000000  0.4298780000000 1.0
C      1  0.5078850000000  0.4297320000000  0.4484540000000 1.0
C      1  0.5704430000000  0.5517500000000  0.5079130000000 1.0
C      1  0.4298490000000  0.5517500000000  0.4924360000000 1.0
C      1  0.5704430000000  0.4483080000000  0.4924360000000 1.0
C      1  0.5518670000000  0.4922900000000  0.4298780000000 1.0
C      1  0.4484250000000  0.4922900000000  0.5704720000000 1.0
C      1  0.5518670000000  0.5077680000000  0.5704720000000 1.0
C      1  0.4924070000000  0.5703260000000  0.4484540000000 1.0
C      1  0.5078850000000  0.5703260000000  0.5518960000000 1.0
C      1  0.4924070000000  0.4297320000000  0.5518960000000 1.0
C      1  0.4298490000000  0.4483080000000  0.4924360000000 1.0
C      1  0.4484250000000  0.5077680000000  0.5704720000000 1.0
C      1  0.5078850000000  0.4297320000000  0.5518960000000 1.0
C      1  0.5704430000000  0.5517500000000  0.4924360000000 1.0
C      1  0.4298490000000  0.5517500000000  0.5079130000000 1.0
C      1  0.5704430000000  0.4483080000000  0.5079130000000 1.0
C      1  0.5518670000000  0.4922900000000  0.5704720000000 1.0
C      1  0.4484250000000  0.4922900000000  0.4298780000000 1.0
C      1  0.5518670000000  0.5077680000000  0.4298780000000 1.0
C      1  0.4924070000000  0.5703260000000  0.5518960000000 1.0
C      1  0.5078850000000  0.5703260000000  0.4484540000000 1.0
C      1  0.4924070000000  0.4297320000000  0.4484540000000 1.0
C      1  0.4324720000000  0.4610970000000  0.4675350000000 1.0
C      1  0.4612140000000  0.4673890000000  0.4325010000000 1.0
C      1  0.4675060000000  0.4323550000000  0.4612430000000 1.0
C      1  0.5678200000000  0.5389600000000  0.4675350000000 1.0
C      1  0.4324720000000  0.5389600000000  0.5328150000000 1.0
C      1  0.5678200000000  0.4610970000000  0.5328150000000 1.0
C      1  0.5390770000000  0.5326690000000  0.4325010000000 1.0
C      1  0.4612140000000  0.5326690000000  0.5678490000000 1.0
C      1  0.5390770000000  0.4673890000000  0.5678490000000 1.0
C      1  0.5327860000000  0.5677030000000  0.4612430000000 1.0
C      1  0.4675060000000  0.5677030000000  0.5391060000000 1.0
C      1  0.5327860000000  0.4323550000000  0.5391060000000 1.0
C      1  0.4324720000000  0.4610970000000  0.5328150000000 1.0
C      1  0.4612140000000  0.4673890000000  0.5678490000000 1.0
C      1  0.4675060000000  0.4323550000000  0.5391060000000 1.0
C      1  0.5678200000000  0.5389600000000  0.5328150000000 1.0
C      1  0.4324720000000  0.5389600000000  0.4675350000000 1.0
C      1  0.5678200000000  0.4610970000000  0.4675350000000 1.0
C      1  0.5390770000000  0.5326690000000  0.5678490000000 1.0
C      1  0.4612140000000  0.5326690000000  0.4325010000000 1.0
C      1  0.5390770000000  0.4673890000000  0.4325010000000 1.0
C      1  0.5327860000000  0.5677030000000  0.5391060000000 1.0
C      1  0.4675060000000  0.5677030000000  0.4612430000000 1.0
C      1  0.5327860000000  0.4323550000000  0.4612430000000 1.0
C      1  0.4876700000000  0.4614720000000  0.5424860000000 1.0
C      1  0.4615890000000  0.5423410000000  0.4876990000000 1.0
C      1  0.5424580000000  0.4875530000000  0.4616180000000 1.0
C      1  0.5126220000000  0.5385860000000  0.5424860000000 1.0
C      1  0.4876700000000  0.5385860000000  0.4578630000000 1.0
C      1  0.5126220000000  0.4614720000000  0.4578630000000 1.0
C      1  0.5387030000000  0.4577170000000  0.4876990000000 1.0
C      1  0.4615890000000  0.4577170000000  0.5126500000000 1.0
C      1  0.5387030000000  0.5423410000000  0.5126500000000 1.0
C      1  0.4578340000000  0.5125050000000  0.4616180000000 1.0
C      1  0.5424580000000  0.5125050000000  0.5387320000000 1.0
C      1  0.4578340000000  0.4875530000000  0.5387320000000 1.0
C      1  0.4876700000000  0.4614720000000  0.4578630000000 1.0
C      1  0.4615890000000  0.5423410000000  0.5126500000000 1.0
C      1  0.5424580000000  0.4875530000000  0.5387320000000 1.0
C      1  0.5126220000000  0.5385860000000  0.4578630000000 1.0
C      1  0.4876700000000  0.5385860000000  0.5424860000000 1.0
C      1  0.5126220000000  0.4614720000000  0.5424860000000 1.0
C      1  0.5387030000000  0.4577170000000  0.5126500000000 1.0
C      1  0.4615890000000  0.4577170000000  0.4876990000000 1.0
C      1  0.5387030000000  0.5423410000000  0.4876990000000 1.0
C      1  0.4578340000000  0.5125050000000  0.5387320000000 1.0
C      1  0.5424580000000  0.5125050000000  0.4616180000000 1.0
C      1  0.4578340000000  0.4875530000000  0.4616180000000 1.0
C      1  0.5176360000000  0.4887300000000  0.4384850000000 1.0
C      1  0.4888470000000  0.4383390000000  0.5176650000000 1.0
C      1  0.4384560000000  0.5175190000000  0.4888760000000 1.0
C      1  0.4826560000000  0.5113280000000  0.4384850000000 1.0
C      1  0.5176360000000  0.5113280000000  0.5618650000000 1.0
C      1  0.4826560000000  0.4887300000000  0.5618650000000 1.0
C      1  0.5114450000000  0.5617190000000  0.5176650000000 1.0
C      1  0.4888470000000  0.5617190000000  0.4826850000000 1.0
C      1  0.5114450000000  0.4383390000000  0.4826850000000 1.0
C      1  0.5618360000000  0.4825390000000  0.4888760000000 1.0
C      1  0.4384560000000  0.4825390000000  0.5114740000000 1.0
C      1  0.5618360000000  0.5175190000000  0.5114740000000 1.0
C      1  0.5176360000000  0.4887300000000  0.5618650000000 1.0
C      1  0.4888470000000  0.4383390000000  0.4826850000000 1.0
C      1  0.4384560000000  0.5175190000000  0.5114740000000 1.0
C      1  0.4826560000000  0.5113280000000  0.5618650000000 1.0
C      1  0.5176360000000  0.5113280000000  0.4384850000000 1.0
C      1  0.4826560000000  0.4887300000000  0.4384850000000 1.0
C      1  0.5114450000000  0.5617190000000  0.4826850000000 1.0
C      1  0.4888470000000  0.5617190000000  0.5176650000000 1.0
C      1  0.5114450000000  0.4383390000000  0.5176650000000 1.0
C      1  0.5618360000000  0.4825390000000  0.5114740000000 1.0
C      1  0.4384560000000  0.4825390000000  0.4888760000000 1.0
C      1  0.5618360000000  0.5175190000000  0.4888760000000 1.0
C      1  0.4272020000000  0.4612600000000  0.4834400000000 1.0
C      1  0.4613770000000  0.4832940000000  0.4272300000000 1.0
C      1  0.4834110000000  0.4270850000000  0.4614060000000 1.0
C      1  0.5730900000000  0.5387980000000  0.4834400000000 1.0
C      1  0.4272020000000  0.5387980000000  0.5169100000000 1.0
C      1  0.5730900000000  0.4612600000000  0.5169100000000 1.0
C      1  0.5389150000000  0.5167640000000  0.4272300000000 1.0
C      1  0.4613770000000  0.5167640000000  0.5731190000000 1.0
C      1  0.5389150000000  0.4832940000000  0.5731190000000 1.0
C      1  0.5168810000000  0.5729730000000  0.4614060000000 1.0
C      1  0.4834110000000  0.5729730000000  0.5389440000000 1.0
C      1  0.5168810000000  0.4270850000000  0.5389440000000 1.0
C      1  0.4272020000000  0.4612600000000  0.5169100000000 1.0
C      1  0.4613770000000  0.4832940000000  0.5731190000000 1.0
C      1  0.4834110000000  0.4270850000000  0.5389440000000 1.0
C      1  0.5730900000000  0.5387980000000  0.5169100000000 1.0
C      1  0.4272020000000  0.5387980000000  0.4834400000000 1.0
C      1  0.5730900000000  0.4612600000000  0.4834400000000 1.0
C      1  0.5389150000000  0.5167640000000  0.5731190000000 1.0
C      1  0.4613770000000  0.5167640000000  0.4272300000000 1.0
C      1  0.5389150000000  0.4832940000000  0.4272300000000 1.0
C      1  0.5168810000000  0.5729730000000  0.5389440000000 1.0
C      1  0.4834110000000  0.5729730000000  0.4614060000000 1.0
C      1  0.5168810000000  0.4270850000000  0.4614060000000 1.0
C      1  0.5400260000000  0.5138880000000  0.5154130000000 1.0
C      1  0.5140050000000  0.5152670000000  0.5400550000000 1.0
C      1  0.5153840000000  0.5399090000000  0.5140340000000 1.0
C      1  0.4602660000000  0.4861700000000  0.5154130000000 1.0
C      1  0.5400260000000  0.4861700000000  0.4849370000000 1.0
C      1  0.4602660000000  0.5138880000000  0.4849370000000 1.0
C      1  0.4862870000000  0.4847910000000  0.5400550000000 1.0
C      1  0.5140050000000  0.4847910000000  0.4602950000000 1.0
C      1  0.4862870000000  0.5152670000000  0.4602950000000 1.0
C      1  0.4849080000000  0.4601490000000  0.5140340000000 1.0
C      1  0.5153840000000  0.4601490000000  0.4863150000000 1.0
C      1  0.4849080000000  0.5399090000000  0.4863150000000 1.0
C      1  0.5400260000000  0.5138880000000  0.4849370000000 1.0
C      1  0.5140050000000  0.5152670000000  0.4602950000000 1.0
C      1  0.5153840000000  0.5399090000000  0.4863150000000 1.0
C      1  0.4602660000000  0.4861700000000  0.4849370000000 1.0
C      1  0.5400260000000  0.4861700000000  0.5154130000000 1.0
C      1  0.4602660000000  0.5138880000000  0.5154130000000 1.0
C      1  0.4862870000000  0.4847910000000  0.4602950000000 1.0
C      1  0.5140050000000  0.4847910000000  0.5400550000000 1.0
C      1  0.4862870000000  0.5152670000000  0.5400550000000 1.0
C      1  0.4849080000000  0.4601490000000  0.4863150000000 1.0
C      1  0.5153840000000  0.4601490000000  0.5140340000000 1.0
C      1  0.4849080000000  0.5399090000000  0.5140340000000 1.0
C      1  0.5075440000000  0.4926860000000  0.5514540000000 1.0
C      1  0.4928030000000  0.5513080000000  0.5075730000000 1.0
C      1  0.5514250000000  0.5074270000000  0.4928320000000 1.0
C      1  0.4927480000000  0.5073720000000  0.5514540000000 1.0
C      1  0.5075440000000  0.5073720000000  0.4488960000000 1.0
C      1  0.4927480000000  0.4926860000000  0.4488960000000 1.0
C      1  0.5074890000000  0.4487500000000  0.5075730000000 1.0
C      1  0.4928030000000  0.4487500000000  0.4927770000000 1.0
C      1  0.5074890000000  0.5513080000000  0.4927770000000 1.0
C      1  0.4488670000000  0.4926310000000  0.4928320000000 1.0
C      1  0.5514250000000  0.4926310000000  0.5075180000000 1.0
C      1  0.4488670000000  0.5074270000000  0.5075180000000 1.0
C      1  0.5075440000000  0.4926860000000  0.4488960000000 1.0
C      1  0.4928030000000  0.5513080000000  0.4927770000000 1.0
C      1  0.5514250000000  0.5074270000000  0.5075180000000 1.0
C      1  0.4927480000000  0.5073720000000  0.4488960000000 1.0
C      1  0.5075440000000  0.5073720000000  0.5514540000000 1.0
C      1  0.4927480000000  0.4926860000000  0.5514540000000 1.0
C      1  0.5074890000000  0.4487500000000  0.4927770000000 1.0
C      1  0.4928030000000  0.4487500000000  0.5075730000000 1.0
C      1  0.5074890000000  0.5513080000000  0.5075730000000 1.0
C      1  0.4488670000000  0.4926310000000  0.5075180000000 1.0
C      1  0.5514250000000  0.4926310000000  0.4928320000000 1.0
C      1  0.4488670000000  0.5074270000000  0.4928320000000 1.0
C      1  0.5078140000000  0.5272670000000  0.4660300000000 1.0
C      1  0.5273840000000  0.4658840000000  0.5078430000000 1.0
C      1  0.4660010000000  0.5076970000000  0.5274130000000 1.0
C      1  0.4924780000000  0.4727900000000  0.4660300000000 1.0
C      1  0.5078140000000  0.4727900000000  0.5343200000000 1.0
C      1  0.4924780000000  0.5272670000000  0.5343200000000 1.0
C      1  0.4729070000000  0.5341740000000  0.5078430000000 1.0
C      1  0.5273840000000  0.5341740000000  0.4925070000000 1.0
C      1  0.4729070000000  0.4658840000000  0.4925070000000 1.0
C      1  0.5342910000000  0.4923610000000  0.5274130000000 1.0
C      1  0.4660010000000  0.4923610000000  0.4729360000000 1.0
C      1  0.5342910000000  0.5076970000000  0.4729360000000 1.0
C      1  0.5078140000000  0.5272670000000  0.5343200000000 1.0
C      1  0.5273840000000  0.4658840000000  0.4925070000000 1.0
C      1  0.4660010000000  0.5076970000000  0.4729360000000 1.0
C      1  0.4924780000000  0.4727900000000  0.5343200000000 1.0
C      1  0.5078140000000  0.4727900000000  0.4660300000000 1.0
C      1  0.4924780000000  0.5272670000000  0.4660300000000 1.0
C      1  0.4729070000000  0.5341740000000  0.4925070000000 1.0
C      1  0.5273840000000  0.5341740000000  0.5078430000000 1.0
C      1  0.4729070000000  0.4658840000000  0.5078430000000 1.0
C      1  0.5342910000000  0.4923610000000  0.4729360000000 1.0
C      1  0.4660010000000  0.4923610000000  0.5274130000000 1.0
C      1  0.5342910000000  0.5076970000000  0.5274130000000 1.0
C      1  0.4500890000000  0.4632010000000  0.4815520000000 1.0
C      1  0.4633180000000  0.4814070000000  0.4501180000000 1.0
C      1  0.4815240000000  0.4499720000000  0.4633470000000 1.0
C      1  0.5502020000000  0.5368570000000  0.4815520000000 1.0
C      1  0.4500890000000  0.5368570000000  0.5187970000000 1.0
C      1  0.5502020000000  0.4632010000000  0.5187970000000 1.0
C      1  0.5369740000000  0.5186510000000  0.4501180000000 1.0
C      1  0.4633180000000  0.5186510000000  0.5502310000000 1.0
C      1  0.5369740000000  0.4814070000000  0.5502310000000 1.0
C      1  0.5187680000000  0.5500850000000  0.4633470000000 1.0
C      1  0.4815240000000  0.5500850000000  0.5370030000000 1.0
C      1  0.5187680000000  0.4499720000000  0.5370030000000 1.0
C      1  0.4500890000000  0.4632010000000  0.5187970000000 1.0
C      1  0.4633180000000  0.4814070000000  0.5502310000000 1.0
C      1  0.4815240000000  0.4499720000000  0.5370030000000 1.0
C      1  0.5502020000000  0.5368570000000  0.5187970000000 1.0
C      1  0.4500890000000  0.5368570000000  0.4815520000000 1.0
C      1  0.5502020000000  0.4632010000000  0.4815520000000 1.0
C      1  0.5369740000000  0.5186510000000  0.5502310000000 1.0
C      1  0.4633180000000  0.5186510000000  0.4501180000000 1.0
C      1  0.5369740000000  0.4814070000000  0.4501180000000 1.0
C      1  0.5187680000000  0.5500850000000  0.5370030000000 1.0
C      1  0.4815240000000  0.5500850000000  0.4633470000000 1.0
C      1  0.5187680000000  0.4499720000000  0.4633470000000 1.0
C      1  0.5277640000000  0.5547970000000  0.4404570000000 1.0
C      1  0.5549140000000  0.4403110000000  0.5277930000000 1.0
C      1  0.4404280000000  0.5276470000000  0.5549430000000 1.0
C      1  0.4725280000000  0.4452610000000  0.4404570000000 1.0
C      1  0.5277640000000  0.4452610000000  0.5598930000000 1.0
C      1  0.4725280000000  0.5547970000000  0.5598930000000 1.0
C      1  0.4453780000000  0.5597470000000  0.5277930000000 1.0
C      1  0.5549140000000  0.5597470000000  0.4725570000000 1.0
C      1  0.4453780000000  0.4403110000000  0.4725570000000 1.0
C      1  0.5598640000000  0.4724110000000  0.5549430000000 1.0
C      1  0.4404280000000  0.4724110000000  0.4454070000000 1.0
C      1  0.5598640000000  0.5276470000000  0.4454070000000 1.0
C      1  0.5277640000000  0.5547970000000  0.5598930000000 1.0
C      1  0.5549140000000  0.4403110000000  0.4725570000000 1.0
C      1  0.4404280000000  0.5276470000000  0.4454070000000 1.0
C      1  0.4725280000000  0.4452610000000  0.5598930000000 1.0
C      1  0.5277640000000  0.4452610000000  0.4404570000000 1.0
C      1  0.4725280000000  0.5547970000000  0.4404570000000 1.0
C      1  0.4453780000000  0.5597470000000  0.4725570000000 1.0
C      1  0.5549140000000  0.5597470000000  0.5277930000000 1.0
C      1  0.4453780000000  0.4403110000000  0.5277930000000 1.0
C      1  0.5598640000000  0.4724110000000  0.4454070000000 1.0
C      1  0.4404280000000  0.4724110000000  0.5549430000000 1.0
C      1  0.5598640000000  0.5276470000000  0.5549430000000 1.0
C      1  0.5551650000000  0.5150940000000  0.5338980000000 1.0
C      1  0.5152110000000  0.5337520000000  0.5551940000000 1.0
C      1  0.5338690000000  0.5550480000000  0.5152400000000 1.0
C      1  0.4451270000000  0.4849630000000  0.5338980000000 1.0
C      1  0.5551650000000  0.4849630000000  0.4664510000000 1.0
C      1  0.4451270000000  0.5150940000000  0.4664510000000 1.0
C      1  0.4850800000000  0.4663050000000  0.5551940000000 1.0
C      1  0.5152110000000  0.4663050000000  0.4451560000000 1.0
C      1  0.4850800000000  0.5337520000000  0.4451560000000 1.0
C      1  0.4664220000000  0.4450100000000  0.5152400000000 1.0
C      1  0.5338690000000  0.4450100000000  0.4851090000000 1.0
C      1  0.4664220000000  0.5550480000000  0.4851090000000 1.0
C      1  0.5551650000000  0.5150940000000  0.4664510000000 1.0
C      1  0.5152110000000  0.5337520000000  0.4451560000000 1.0
C      1  0.5338690000000  0.5550480000000  0.4851090000000 1.0
C      1  0.4451270000000  0.4849630000000  0.4664510000000 1.0
C      1  0.5551650000000  0.4849630000000  0.5338980000000 1.0
C      1  0.4451270000000  0.5150940000000  0.5338980000000 1.0
C      1  0.4850800000000  0.4663050000000  0.4451560000000 1.0
C      1  0.5152110000000  0.4663050000000  0.5551940000000 1.0
C      1  0.4850800000000  0.5337520000000  0.5551940000000 1.0
C      1  0.4664220000000  0.4450100000000  0.4851090000000 1.0
C      1  0.5338690000000  0.4450100000000  0.5152400000000 1.0
C      1  0.4664220000000  0.5550480000000  0.5152400000000 1.0
C      1  0.5614770000000  0.5332830000000  0.4921780000000 1.0
C      1  0.5334000000000  0.4920320000000  0.5615050000000 1.0
C      1  0.4921490000000  0.5613600000000  0.5334290000000 1.0
C      1  0.4388150000000  0.4667750000000  0.4921780000000 1.0
C      1  0.5614770000000  0.4667750000000  0.5081720000000 1.0
C      1  0.4388150000000  0.5332830000000  0.5081720000000 1.0
C      1  0.4668920000000  0.5080260000000  0.5615050000000 1.0
C      1  0.5334000000000  0.5080260000000  0.4388440000000 1.0
C      1  0.4668920000000  0.4920320000000  0.4388440000000 1.0
C      1  0.5081430000000  0.4386980000000  0.5334290000000 1.0
C      1  0.4921490000000  0.4386980000000  0.4669210000000 1.0
C      1  0.5081430000000  0.5613600000000  0.4669210000000 1.0
C      1  0.5614770000000  0.5332830000000  0.5081720000000 1.0
C      1  0.5334000000000  0.4920320000000  0.4388440000000 1.0
C      1  0.4921490000000  0.5613600000000  0.4669210000000 1.0
C      1  0.4388150000000  0.4667750000000  0.5081720000000 1.0
C      1  0.5614770000000  0.4667750000000  0.4921780000000 1.0
C      1  0.4388150000000  0.5332830000000  0.4921780000000 1.0
C      1  0.4668920000000  0.5080260000000  0.4388440000000 1.0
C      1  0.5334000000000  0.5080260000000  0.5615050000000 1.0
C      1  0.4668920000000  0.4920320000000  0.5615050000000 1.0
C      1  0.5081430000000  0.4386980000000  0.4669210000000 1.0
C      1  0.4921490000000  0.4386980000000  0.5334290000000 1.0
C      1  0.5081430000000  0.5613600000000  0.5334290000000 1.0
C      1  0.4541770000000  0.4670950000000  0.4457310000000 1.0
C      1  0.4672120000000  0.4455850000000  0.4542060000000 1.0
C      1  0.4457020000000  0.4540600000000  0.4672410000000 1.0
C      1  0.5461140000000  0.5329630000000  0.4457310000000 1.0
C      1  0.4541770000000  0.5329630000000  0.5546180000000 1.0
C      1  0.5461140000000  0.4670950000000  0.5546180000000 1.0
C      1  0.5330800000000  0.5544730000000  0.4542060000000 1.0
C      1  0.4672120000000  0.5544730000000  0.5461430000000 1.0
C      1  0.5330800000000  0.4455850000000  0.5461430000000 1.0
C      1  0.5545900000000  0.5459970000000  0.4672410000000 1.0
C      1  0.4457020000000  0.5459970000000  0.5331090000000 1.0
C      1  0.5545900000000  0.4540600000000  0.5331090000000 1.0
C      1  0.4541770000000  0.4670950000000  0.5546180000000 1.0
C      1  0.4672120000000  0.4455850000000  0.5461430000000 1.0
C      1  0.4457020000000  0.4540600000000  0.5331090000000 1.0
C      1  0.5461140000000  0.5329630000000  0.5546180000000 1.0
C      1  0.4541770000000  0.5329630000000  0.4457310000000 1.0
C      1  0.5461140000000  0.4670950000000  0.4457310000000 1.0
C      1  0.5330800000000  0.5544730000000  0.5461430000000 1.0
C      1  0.4672120000000  0.5544730000000  0.4542060000000 1.0
C      1  0.5330800000000  0.4455850000000  0.4542060000000 1.0
C      1  0.5545900000000  0.5459970000000  0.5331090000000 1.0
C      1  0.4457020000000  0.5459970000000  0.4672410000000 1.0
C      1  0.5545900000000  0.4540600000000  0.4672410000000 1.0
C      1  0.4176960000000  0.5278800000000  0.5152800000000 1.0
C      1  0.5279970000000  0.5151340000000  0.4177250000000 1.0
C      1  0.5152510000000  0.4175790000000  0.5280260000000 1.0
C      1  0.5825960000000  0.4721770000000  0.5152800000000 1.0
C      1  0.4176960000000  0.4721770000000  0.4850700000000 1.0
C      1  0.5825960000000  0.5278800000000  0.4850700000000 1.0
C      1  0.4722940000000  0.4849240000000  0.4177250000000 1.0
C      1  0.5279970000000  0.4849240000000  0.5826240000000 1.0
C      1  0.4722940000000  0.5151340000000  0.5826240000000 1.0
C      1  0.4850410000000  0.5824790000000  0.5280260000000 1.0
C      1  0.5152510000000  0.5824790000000  0.4723230000000 1.0
C      1  0.4850410000000  0.4175790000000  0.4723230000000 1.0
C      1  0.4176960000000  0.5278800000000  0.4850700000000 1.0
C      1  0.5279970000000  0.5151340000000  0.5826240000000 1.0
C      1  0.5152510000000  0.4175790000000  0.4723230000000 1.0
C      1  0.5825960000000  0.4721770000000  0.4850700000000 1.0
C      1  0.4176960000000  0.4721770000000  0.5152800000000 1.0
C      1  0.5825960000000  0.5278800000000  0.5152800000000 1.0
C      1  0.4722940000000  0.4849240000000  0.5826240000000 1.0
C      1  0.5279970000000  0.4849240000000  0.4177250000000 1.0
C      1  0.4722940000000  0.5151340000000  0.4177250000000 1.0
C      1  0.4850410000000  0.5824790000000  0.4723230000000 1.0
C      1  0.5152510000000  0.5824790000000  0.5280260000000 1.0
C      1  0.4850410000000  0.4175790000000  0.5280260000000 1.0
C      1  0.5677790000000  0.5281960000000  0.5424680000000 1.0
C      1  0.5283130000000  0.5423220000000  0.5678080000000 1.0
C      1  0.5424390000000  0.5676620000000  0.5283420000000 1.0
C      1  0.4325130000000  0.4718610000000  0.5424680000000 1.0
C      1  0.5677790000000  0.4718610000000  0.4578810000000 1.0
C      1  0.4325130000000  0.5281960000000  0.4578810000000 1.0
C      1  0.4719780000000  0.4577350000000  0.5678080000000 1.0
C      1  0.5283130000000  0.4577350000000  0.4325420000000 1.0
C      1  0.4719780000000  0.5423220000000  0.4325420000000 1.0
C      1  0.4578520000000  0.4323960000000  0.5283420000000 1.0
C      1  0.5424390000000  0.4323960000000  0.4720070000000 1.0
C      1  0.4578520000000  0.5676620000000  0.4720070000000 1.0
C      1  0.5677790000000  0.5281960000000  0.4578810000000 1.0
C      1  0.5283130000000  0.5423220000000  0.4325420000000 1.0
C      1  0.5424390000000  0.5676620000000  0.4720070000000 1.0
C      1  0.4325130000000  0.4718610000000  0.4578810000000 1.0
C      1  0.5677790000000  0.4718610000000  0.5424680000000 1.0
C      1  0.4325130000000  0.5281960000000  0.5424680000000 1.0
C      1  0.4719780000000  0.4577350000000  0.4325420000000 1.0
C      1  0.5283130000000  0.4577350000000  0.5678080000000 1.0
C      1  0.4719780000000  0.5423220000000  0.5678080000000 1.0
C      1  0.4578520000000  0.4323960000000  0.4720070000000 1.0
C      1  0.5424390000000  0.4323960000000  0.5283420000000 1.0
C      1  0.4578520000000  0.5676620000000  0.5283420000000 1.0
C      1  0.5072170000000  0.4695780000000  0.5800850000000 1.0
C      1  0.4696950000000  0.5799390000000  0.5072460000000 1.0
C      1  0.5800560000000  0.5071010000000  0.4697230000000 1.0
C      1  0.4930740000000  0.5304800000000  0.5800850000000 1.0
C      1  0.5072170000000  0.5304800000000  0.4202650000000 1.0
C      1  0.4930740000000  0.4695780000000  0.4202650000000 1.0
C      1  0.5305970000000  0.4201190000000  0.5072460000000 1.0
C      1  0.4696950000000  0.4201190000000  0.4931030000000 1.0
C      1  0.5305970000000  0.5799390000000  0.4931030000000 1.0
C      1  0.4202360000000  0.4929570000000  0.4697230000000 1.0
C      1  0.5800560000000  0.4929570000000  0.5306260000000 1.0
C      1  0.4202360000000  0.5071010000000  0.5306260000000 1.0
C      1  0.5072170000000  0.4695780000000  0.4202650000000 1.0
C      1  0.4696950000000  0.5799390000000  0.4931030000000 1.0
C      1  0.5800560000000  0.5071010000000  0.5306260000000 1.0
C      1  0.4930740000000  0.5304800000000  0.4202650000000 1.0
C      1  0.5072170000000  0.5304800000000  0.5800850000000 1.0
C      1  0.4930740000000  0.4695780000000  0.5800850000000 1.0
C      1  0.5305970000000  0.4201190000000  0.4931030000000 1.0
C      1  0.4696950000000  0.4201190000000  0.5072460000000 1.0
C      1  0.5305970000000  0.5799390000000  0.5072460000000 1.0
C      1  0.4202360000000  0.4929570000000  0.5306260000000 1.0
C      1  0.5800560000000  0.4929570000000  0.4697230000000 1.0
C      1  0.4202360000000  0.5071010000000  0.4697230000000 1.0
C      1  0.5615150000000  0.5607930000000  0.5148330000000 1.0
C      1  0.5609100000000  0.5146880000000  0.5615440000000 1.0
C      1  0.5148050000000  0.5613980000000  0.5609390000000 1.0
C      1  0.4387770000000  0.4392650000000  0.5148330000000 1.0
C      1  0.5615150000000  0.4392650000000  0.4855160000000 1.0
C      1  0.4387770000000  0.5607930000000  0.4855160000000 1.0
C      1  0.4393820000000  0.4853700000000  0.5615440000000 1.0
C      1  0.5609100000000  0.4853700000000  0.4388060000000 1.0
C      1  0.4393820000000  0.5146880000000  0.4388060000000 1.0
C      1  0.4854870000000  0.4386600000000  0.5609390000000 1.0
C      1  0.5148050000000  0.4386600000000  0.4394110000000 1.0
C      1  0.4854870000000  0.5613980000000  0.4394110000000 1.0
C      1  0.5615150000000  0.5607930000000  0.4855160000000 1.0
C      1  0.5609100000000  0.5146880000000  0.4388060000000 1.0
C      1  0.5148050000000  0.5613980000000  0.4394110000000 1.0
C      1  0.4387770000000  0.4392650000000  0.4855160000000 1.0
C      1  0.5615150000000  0.4392650000000  0.5148330000000 1.0
C      1  0.4387770000000  0.5607930000000  0.5148330000000 1.0
C      1  0.4393820000000  0.4853700000000  0.4388060000000 1.0
C      1  0.5609100000000  0.4853700000000  0.5615440000000 1.0
C      1  0.4393820000000  0.5146880000000  0.5615440000000 1.0
C      1  0.4854870000000  0.4386600000000  0.4394110000000 1.0
C      1  0.5148050000000  0.4386600000000  0.5609390000000 1.0
C      1  0.4854870000000  0.5613980000000  0.5609390000000 1.0
C      1  0.5394540000000  0.5695470000000  0.5136090000000 1.0
C      1  0.5696640000000  0.5134630000000  0.5394830000000 1.0
C      1  0.5135800000000  0.5393370000000  0.5696930000000 1.0
C      1  0.4608380000000  0.4305110000000  0.5136090000000 1.0
C      1  0.5394540000000  0.4305110000000  0.4867400000000 1.0
C      1  0.4608380000000  0.5695470000000  0.4867400000000 1.0
C      1  0.4306280000000  0.4865940000000  0.5394830000000 1.0
C      1  0.5696640000000  0.4865940000000  0.4608670000000 1.0
C      1  0.4306280000000  0.5134630000000  0.4608670000000 1.0
C      1  0.4867110000000  0.4607210000000  0.5696930000000 1.0
C      1  0.5135800000000  0.4607210000000  0.4306560000000 1.0
C      1  0.4867110000000  0.5393370000000  0.4306560000000 1.0
C      1  0.5394540000000  0.5695470000000  0.4867400000000 1.0
C      1  0.5696640000000  0.5134630000000  0.4608670000000 1.0
C      1  0.5135800000000  0.5393370000000  0.4306560000000 1.0
C      1  0.4608380000000  0.4305110000000  0.4867400000000 1.0
C      1  0.5394540000000  0.4305110000000  0.5136090000000 1.0
C      1  0.4608380000000  0.5695470000000  0.5136090000000 1.0
C      1  0.4306280000000  0.4865940000000  0.4608670000000 1.0
C      1  0.5696640000000  0.4865940000000  0.5394830000000 1.0
C      1  0.4306280000000  0.5134630000000  0.5394830000000 1.0
C      1  0.4867110000000  0.4607210000000  0.4306560000000 1.0
C      1  0.5135800000000  0.4607210000000  0.5696930000000 1.0
C      1  0.4867110000000  0.5393370000000  0.5696930000000 1.0
C      1  0.5071410000000  0.5297310000000  0.4805280000000 1.0
C      1  0.5298480000000  0.4803820000000  0.5071690000000 1.0
C      1  0.4804990000000  0.5070240000000  0.5298770000000 1.0
C      1  0.4931510000000  0.4703270000000  0.4805280000000 1.0
C      1  0.5071410000000  0.4703270000000  0.5198220000000 1.0
C      1  0.4931510000000  0.5297310000000  0.5198220000000 1.0
C      1  0.4704440000000  0.5196760000000  0.5071690000000 1.0
C      1  0.5298480000000  0.5196760000000  0.4931800000000 1.0
C      1  0.4704440000000  0.4803820000000  0.4931800000000 1.0
C      1  0.5197930000000  0.4930340000000  0.5298770000000 1.0
C      1  0.4804990000000  0.4930340000000  0.4704730000000 1.0
C      1  0.5197930000000  0.5070240000000  0.4704730000000 1.0
C      1  0.5071410000000  0.5297310000000  0.5198220000000 1.0
C      1  0.5298480000000  0.4803820000000  0.4931800000000 1.0
C      1  0.4804990000000  0.5070240000000  0.4704730000000 1.0
C      1  0.4931510000000  0.4703270000000  0.5198220000000 1.0
C      1  0.5071410000000  0.4703270000000  0.4805280000000 1.0
C      1  0.4931510000000  0.5297310000000  0.4805280000000 1.0
C      1  0.4704440000000  0.5196760000000  0.4931800000000 1.0
C      1  0.5298480000000  0.5196760000000  0.5071690000000 1.0
C      1  0.4704440000000  0.4803820000000  0.5071690000000 1.0
C      1  0.5197930000000  0.4930340000000  0.4704730000000 1.0
C      1  0.4804990000000  0.4930340000000  0.5298770000000 1.0
C      1  0.5197930000000  0.5070240000000  0.5298770000000 1.0
C      1  0.4781930000000  0.4783760000000  0.4487920000000 1.0
C      1  0.4784930000000  0.4486470000000  0.4782220000000 1.0
C      1  0.4487640000000  0.4780760000000  0.4785220000000 1.0
C      1  0.5220990000000  0.5216810000000  0.4487920000000 1.0
C      1  0.4781930000000  0.5216810000000  0.5515570000000 1.0
C      1  0.5220990000000  0.4783760000000  0.5515570000000 1.0
C      1  0.5217980000000  0.5514110000000  0.4782220000000 1.0
C      1  0.4784930000000  0.5514110000000  0.5221270000000 1.0
C      1  0.5217980000000  0.4486470000000  0.5221270000000 1.0
C      1  0.5515280000000  0.5219820000000  0.4785220000000 1.0
C      1  0.4487640000000  0.5219820000000  0.5218270000000 1.0
C      1  0.5515280000000  0.4780760000000  0.5218270000000 1.0
C      1  0.4781930000000  0.4783760000000  0.5515570000000 1.0
C      1  0.4784930000000  0.4486470000000  0.5221270000000 1.0
C      1  0.4487640000000  0.4780760000000  0.5218270000000 1.0
C      1  0.5220990000000  0.5216810000000  0.5515570000000 1.0
C      1  0.4781930000000  0.5216810000000  0.4487920000000 1.0
C      1  0.5220990000000  0.4783760000000  0.4487920000000 1.0
C      1  0.5217980000000  0.5514110000000  0.5221270000000 1.0
C      1  0.4784930000000  0.5514110000000  0.4782220000000 1.0
C      1  0.5217980000000  0.4486470000000  0.4782220000000 1.0
C      1  0.5515280000000  0.5219820000000  0.5218270000000 1.0
C      1  0.4487640000000  0.5219820000000  0.4785220000000 1.0
C      1  0.5515280000000  0.4780760000000  0.4785220000000 1.0
C      1  0.5194570000000  0.4158030000000  0.5151220000000 1.0
C      1  0.4159200000000  0.5149760000000  0.5194860000000 1.0
C      1  0.5150930000000  0.5193400000000  0.4159490000000 1.0
C      1  0.4808350000000  0.5842550000000  0.5151220000000 1.0
C      1  0.5194570000000  0.5842550000000  0.4852280000000 1.0
C      1  0.4808350000000  0.4158030000000  0.4852280000000 1.0
C      1  0.5843720000000  0.4850820000000  0.5194860000000 1.0
C      1  0.4159200000000  0.4850820000000  0.4808640000000 1.0
C      1  0.5843720000000  0.5149760000000  0.4808640000000 1.0
C      1  0.4851990000000  0.4807180000000  0.4159490000000 1.0
C      1  0.5150930000000  0.4807180000000  0.5844010000000 1.0
C      1  0.4851990000000  0.5193400000000  0.5844010000000 1.0
C      1  0.5194570000000  0.4158030000000  0.4852280000000 1.0
C      1  0.4159200000000  0.5149760000000  0.4808640000000 1.0
C      1  0.5150930000000  0.5193400000000  0.5844010000000 1.0
C      1  0.4808350000000  0.5842550000000  0.4852280000000 1.0
C      1  0.5194570000000  0.5842550000000  0.5151220000000 1.0
C      1  0.4808350000000  0.4158030000000  0.5151220000000 1.0
C      1  0.5843720000000  0.4850820000000  0.4808640000000 1.0
C      1  0.4159200000000  0.4850820000000  0.5194860000000 1.0
C      1  0.5843720000000  0.5149760000000  0.5194860000000 1.0
C      1  0.4851990000000  0.4807180000000  0.5844010000000 1.0
C      1  0.5150930000000  0.4807180000000  0.4159490000000 1.0
C      1  0.4851990000000  0.5193400000000  0.4159490000000 1.0
C      1  0.5070410000000  0.4475660000000  0.5684900000000 1.0
C      1  0.4476830000000  0.5683440000000  0.5070700000000 1.0
C      1  0.5684610000000  0.5069240000000  0.4477120000000 1.0
C      1  0.4932510000000  0.5524920000000  0.5684900000000 1.0
C      1  0.5070410000000  0.5524920000000  0.4318600000000 1.0
C      1  0.4932510000000  0.4475660000000  0.4318600000000 1.0
C      1  0.5526090000000  0.4317140000000  0.5070700000000 1.0
C      1  0.4476830000000  0.4317140000000  0.4932800000000 1.0
C      1  0.5526090000000  0.5683440000000  0.4932800000000 1.0
C      1  0.4318310000000  0.4931340000000  0.4477120000000 1.0
C      1  0.5684610000000  0.4931340000000  0.5526370000000 1.0
C      1  0.4318310000000  0.5069240000000  0.5526370000000 1.0
C      1  0.5070410000000  0.4475660000000  0.4318600000000 1.0
C      1  0.4476830000000  0.5683440000000  0.4932800000000 1.0
C      1  0.5684610000000  0.5069240000000  0.5526370000000 1.0
C      1  0.4932510000000  0.5524920000000  0.4318600000000 1.0
C      1  0.5070410000000  0.5524920000000  0.5684900000000 1.0
C      1  0.4932510000000  0.4475660000000  0.5684900000000 1.0
C      1  0.5526090000000  0.4317140000000  0.4932800000000 1.0
C      1  0.4476830000000  0.4317140000000  0.5070700000000 1.0
C      1  0.5526090000000  0.5683440000000  0.5070700000000 1.0
C      1  0.4318310000000  0.4931340000000  0.5526370000000 1.0
C      1  0.5684610000000  0.4931340000000  0.4477120000000 1.0
C      1  0.4318310000000  0.5069240000000  0.4477120000000 1.0
C      1  0.5073050000000  0.5762370000000  0.5156610000000 1.0
C      1  0.5763540000000  0.5155150000000  0.5073340000000 1.0
C      1  0.5156320000000  0.5071880000000  0.5763830000000 1.0
C      1  0.4929870000000  0.4238210000000  0.5156610000000 1.0
C      1  0.5073050000000  0.4238210000000  0.4846880000000 1.0
C      1  0.4929870000000  0.5762370000000  0.4846880000000 1.0
C      1  0.4239380000000  0.4845420000000  0.5073340000000 1.0
C      1  0.5763540000000  0.4845420000000  0.4930160000000 1.0
C      1  0.4239380000000  0.5155150000000  0.4930160000000 1.0
C      1  0.4846590000000  0.4928700000000  0.5763830000000 1.0
C      1  0.5156320000000  0.4928700000000  0.4239660000000 1.0
C      1  0.4846590000000  0.5071880000000  0.4239660000000 1.0
C      1  0.5073050000000  0.5762370000000  0.4846880000000 1.0
C      1  0.5763540000000  0.5155150000000  0.4930160000000 1.0
C      1  0.5156320000000  0.5071880000000  0.4239660000000 1.0
C      1  0.4929870000000  0.4238210000000  0.4846880000000 1.0
C      1  0.5073050000000  0.4238210000000  0.5156610000000 1.0
C      1  0.4929870000000  0.5762370000000  0.5156610000000 1.0
C      1  0.4239380000000  0.4845420000000  0.4930160000000 1.0
C      1  0.5763540000000  0.4845420000000  0.5073340000000 1.0
C      1  0.4239380000000  0.5155150000000  0.5073340000000 1.0
C      1  0.4846590000000  0.4928700000000  0.4239660000000 1.0
C      1  0.5156320000000  0.4928700000000  0.5763830000000 1.0
C      1  0.4846590000000  0.5071880000000  0.5763830000000 1.0
C      1  0.5449060000000  0.4552690000000  0.4554150000000 1.0
C      1  0.4553860000000  0.5447890000000  0.5449350000000 1.0
C      1  0.5449060000000  0.5447890000000  0.5449350000000 1.0
C      1  0.4553860000000  0.4552690000000  0.5449350000000 1.0
C      1  0.4553860000000  0.5447890000000  0.4554150000000 1.0
C      1  0.5449060000000  0.5447890000000  0.4554150000000 1.0
C      1  0.4553860000000  0.4552690000000  0.4554150000000 1.0
C      1  0.5449060000000  0.4552690000000  0.5449350000000 1.0
END
