TITL C-1887023-9817-21 -1.17671013168916e-06 1000000 -3597.17733867111 0 0 500 (Th) n - 1
REM
REM in /nfs/bkarasulu/CARBON/AIRSS/Generating-Clusters/GAP-ML-2020/Higher-Symm/Selected-Sizes/TryA-Only_Ih-Symm/Larger-Clusters
REM
REM
REM
REM
REM
REM ./C.cell (2cf5181f0f1d4d5b12b972d32ad12063)
REM
REM compiler GCC version 9.2.1 20190827 (Red Hat 9.2.1-1)
REM options -cpp -mtune=generic -march=x86-64 -g -O0 -fpre-include=/usr/include/finclude/math-vector-fortran.h
REM seed 686546749 -1807013143 1598545090 -1111318588 1304755043 1873005240 1269136482 -176655806 713296720 1568296997 -1357590260 109987155 -1439345955 -1239604357 937660905 -428353267 -2116265632 1536802700 1007867919 1051424741 -1559036137 -82211209 -1857458414 -739211635 -1807238046 1599916598 -1963605222 7934441 -1109435040 925928275 1702163224 1277625931 1910699395
REM
CELL 1.54180  100.00000  100.00000  100.00000   90.00000   90.00000   90.00000
LATT -1
SFAC C  
C      1  0.4650030000000  0.4868860000000  0.5499670000000 1.0
C      1  0.4870100000000  0.5499900000000  0.4648550000000 1.0
C      1  0.5501140000000  0.4648780000000  0.4868630000000 1.0
C      1  0.5350430000000  0.4868860000000  0.4497850000000 1.0
C      1  0.5350430000000  0.5129110000000  0.5499670000000 1.0
C      1  0.4650030000000  0.5129110000000  0.4497850000000 1.0
C      1  0.5130350000000  0.5499900000000  0.5348960000000 1.0
C      1  0.5130350000000  0.4498080000000  0.4648550000000 1.0
C      1  0.4870100000000  0.4498080000000  0.5348960000000 1.0
C      1  0.4499320000000  0.4648780000000  0.5128880000000 1.0
C      1  0.4499320000000  0.5349190000000  0.4868630000000 1.0
C      1  0.5501140000000  0.5349190000000  0.5128880000000 1.0
C      1  0.4650030000000  0.5129110000000  0.5499670000000 1.0
C      1  0.4870100000000  0.4498080000000  0.4648550000000 1.0
C      1  0.5501140000000  0.5349190000000  0.4868630000000 1.0
C      1  0.5350430000000  0.5129110000000  0.4497850000000 1.0
C      1  0.5350430000000  0.4868860000000  0.5499670000000 1.0
C      1  0.4650030000000  0.4868860000000  0.4497850000000 1.0
C      1  0.5130350000000  0.4498080000000  0.5348960000000 1.0
C      1  0.5130350000000  0.5499900000000  0.4648550000000 1.0
C      1  0.4870100000000  0.5499900000000  0.5348960000000 1.0
C      1  0.4499320000000  0.5349190000000  0.5128880000000 1.0
C      1  0.4499320000000  0.4648780000000  0.4868630000000 1.0
C      1  0.5501140000000  0.4648780000000  0.5128880000000 1.0
C      1  0.4692800000000  0.5609850000000  0.5501890000000 1.0
C      1  0.5611090000000  0.5502120000000  0.4691330000000 1.0
C      1  0.5503360000000  0.4691560000000  0.5609620000000 1.0
C      1  0.5307660000000  0.5609850000000  0.4495630000000 1.0
C      1  0.5307660000000  0.4388120000000  0.5501890000000 1.0
C      1  0.4692800000000  0.4388120000000  0.4495630000000 1.0
C      1  0.4389360000000  0.5502120000000  0.5306190000000 1.0
C      1  0.4389360000000  0.4495860000000  0.4691330000000 1.0
C      1  0.5611090000000  0.4495860000000  0.5306190000000 1.0
C      1  0.4497100000000  0.4691560000000  0.4387890000000 1.0
C      1  0.4497100000000  0.5306410000000  0.5609620000000 1.0
C      1  0.5503360000000  0.5306410000000  0.4387890000000 1.0
C      1  0.4692800000000  0.4388120000000  0.5501890000000 1.0
C      1  0.5611090000000  0.4495860000000  0.4691330000000 1.0
C      1  0.5503360000000  0.5306410000000  0.5609620000000 1.0
C      1  0.5307660000000  0.4388120000000  0.4495630000000 1.0
C      1  0.5307660000000  0.5609850000000  0.5501890000000 1.0
C      1  0.4692800000000  0.5609850000000  0.4495630000000 1.0
C      1  0.4389360000000  0.4495860000000  0.5306190000000 1.0
C      1  0.4389360000000  0.5502120000000  0.4691330000000 1.0
C      1  0.5611090000000  0.5502120000000  0.5306190000000 1.0
C      1  0.4497100000000  0.5306410000000  0.4387890000000 1.0
C      1  0.4497100000000  0.4691560000000  0.5609620000000 1.0
C      1  0.5503360000000  0.4691560000000  0.4387890000000 1.0
C      1  0.4929980000000  0.5177640000000  0.5722890000000 1.0
C      1  0.5178880000000  0.5723120000000  0.4928510000000 1.0
C      1  0.5724360000000  0.4928740000000  0.5177410000000 1.0
C      1  0.5070480000000  0.5177640000000  0.4274620000000 1.0
C      1  0.5070480000000  0.4820330000000  0.5722890000000 1.0
C      1  0.4929980000000  0.4820330000000  0.4274620000000 1.0
C      1  0.4821580000000  0.5723120000000  0.5069010000000 1.0
C      1  0.4821580000000  0.4274850000000  0.4928510000000 1.0
C      1  0.5178880000000  0.4274850000000  0.5069010000000 1.0
C      1  0.4276090000000  0.4928740000000  0.4820100000000 1.0
C      1  0.4276090000000  0.5069240000000  0.5177410000000 1.0
C      1  0.5724360000000  0.5069240000000  0.4820100000000 1.0
C      1  0.4929980000000  0.4820330000000  0.5722890000000 1.0
C      1  0.5178880000000  0.4274850000000  0.4928510000000 1.0
C      1  0.5724360000000  0.5069240000000  0.5177410000000 1.0
C      1  0.5070480000000  0.4820330000000  0.4274620000000 1.0
C      1  0.5070480000000  0.5177640000000  0.5722890000000 1.0
C      1  0.4929980000000  0.5177640000000  0.4274620000000 1.0
C      1  0.4821580000000  0.4274850000000  0.5069010000000 1.0
C      1  0.4821580000000  0.5723120000000  0.4928510000000 1.0
C      1  0.5178880000000  0.5723120000000  0.5069010000000 1.0
C      1  0.4276090000000  0.5069240000000  0.4820100000000 1.0
C      1  0.4276090000000  0.4928740000000  0.5177410000000 1.0
C      1  0.5724360000000  0.4928740000000  0.4820100000000 1.0
C      1  0.5735310000000  0.4471580000000  0.4924880000000 1.0
C      1  0.4472820000000  0.4925110000000  0.5733840000000 1.0
C      1  0.4926350000000  0.5734070000000  0.4471350000000 1.0
C      1  0.4265150000000  0.4471580000000  0.5072630000000 1.0
C      1  0.4265150000000  0.5526390000000  0.4924880000000 1.0
C      1  0.5735310000000  0.5526390000000  0.5072630000000 1.0
C      1  0.5527630000000  0.4925110000000  0.4263680000000 1.0
C      1  0.5527630000000  0.5072860000000  0.5733840000000 1.0
C      1  0.4472820000000  0.5072860000000  0.4263680000000 1.0
C      1  0.5074110000000  0.5734070000000  0.5526160000000 1.0
C      1  0.5074110000000  0.4263910000000  0.4471350000000 1.0
C      1  0.4926350000000  0.4263910000000  0.5526160000000 1.0
C      1  0.5735310000000  0.5526390000000  0.4924880000000 1.0
C      1  0.4472820000000  0.5072860000000  0.5733840000000 1.0
C      1  0.4926350000000  0.4263910000000  0.4471350000000 1.0
C      1  0.4265150000000  0.5526390000000  0.5072630000000 1.0
C      1  0.4265150000000  0.4471580000000  0.4924880000000 1.0
C      1  0.5735310000000  0.4471580000000  0.5072630000000 1.0
C      1  0.5527630000000  0.5072860000000  0.4263680000000 1.0
C      1  0.5527630000000  0.4925110000000  0.5733840000000 1.0
C      1  0.4472820000000  0.4925110000000  0.4263680000000 1.0
C      1  0.5074110000000  0.4263910000000  0.5526160000000 1.0
C      1  0.5074110000000  0.5734070000000  0.4471350000000 1.0
C      1  0.4926350000000  0.5734070000000  0.5526160000000 1.0
C      1  0.4312170000000  0.4722840000000  0.5278840000000 1.0
C      1  0.4724080000000  0.5279070000000  0.4310700000000 1.0
C      1  0.5280310000000  0.4310930000000  0.4722610000000 1.0
C      1  0.5688290000000  0.4722840000000  0.4718670000000 1.0
C      1  0.5688290000000  0.5275140000000  0.5278840000000 1.0
C      1  0.4312170000000  0.5275140000000  0.4718670000000 1.0
C      1  0.5276380000000  0.5279070000000  0.5686820000000 1.0
C      1  0.5276380000000  0.4718900000000  0.4310700000000 1.0
C      1  0.4724080000000  0.4718900000000  0.5686820000000 1.0
C      1  0.4720150000000  0.4310930000000  0.5274910000000 1.0
C      1  0.4720150000000  0.5687050000000  0.4722610000000 1.0
C      1  0.5280310000000  0.5687050000000  0.5274910000000 1.0
C      1  0.4312170000000  0.5275140000000  0.5278840000000 1.0
C      1  0.4724080000000  0.4718900000000  0.4310700000000 1.0
C      1  0.5280310000000  0.5687050000000  0.4722610000000 1.0
C      1  0.5688290000000  0.5275140000000  0.4718670000000 1.0
C      1  0.5688290000000  0.4722840000000  0.5278840000000 1.0
C      1  0.4312170000000  0.4722840000000  0.4718670000000 1.0
C      1  0.5276380000000  0.4718900000000  0.5686820000000 1.0
C      1  0.5276380000000  0.5279070000000  0.4310700000000 1.0
C      1  0.4724080000000  0.5279070000000  0.5686820000000 1.0
C      1  0.4720150000000  0.5687050000000  0.5274910000000 1.0
C      1  0.4720150000000  0.4310930000000  0.4722610000000 1.0
C      1  0.5280310000000  0.4310930000000  0.5274910000000 1.0
C      1  0.4361090000000  0.4623050000000  0.4628900000000 1.0
C      1  0.4624290000000  0.4629130000000  0.4359620000000 1.0
C      1  0.4630370000000  0.4359850000000  0.4622820000000 1.0
C      1  0.5639360000000  0.4623050000000  0.5368610000000 1.0
C      1  0.5639360000000  0.5374930000000  0.4628900000000 1.0
C      1  0.4361090000000  0.5374930000000  0.5368610000000 1.0
C      1  0.5376170000000  0.4629130000000  0.5637890000000 1.0
C      1  0.5376170000000  0.5368840000000  0.4359620000000 1.0
C      1  0.4624290000000  0.5368840000000  0.5637890000000 1.0
C      1  0.5370090000000  0.4359850000000  0.5374700000000 1.0
C      1  0.5370090000000  0.5638120000000  0.4622820000000 1.0
C      1  0.4630370000000  0.5638120000000  0.5374700000000 1.0
C      1  0.4361090000000  0.5374930000000  0.4628900000000 1.0
C      1  0.4624290000000  0.5368840000000  0.4359620000000 1.0
C      1  0.4630370000000  0.5638120000000  0.4622820000000 1.0
C      1  0.5639360000000  0.5374930000000  0.5368610000000 1.0
C      1  0.5639360000000  0.4623050000000  0.4628900000000 1.0
C      1  0.4361090000000  0.4623050000000  0.5368610000000 1.0
C      1  0.5376170000000  0.5368840000000  0.5637890000000 1.0
C      1  0.5376170000000  0.4629130000000  0.4359620000000 1.0
C      1  0.4624290000000  0.4629130000000  0.5637890000000 1.0
C      1  0.5370090000000  0.5638120000000  0.5374700000000 1.0
C      1  0.5370090000000  0.4359850000000  0.4622820000000 1.0
C      1  0.4630370000000  0.4359850000000  0.5374700000000 1.0
C      1  0.4441530000000  0.5290630000000  0.4531830000000 1.0
C      1  0.5291870000000  0.4532060000000  0.4440060000000 1.0
C      1  0.4533300000000  0.4440290000000  0.5290400000000 1.0
C      1  0.5558930000000  0.5290630000000  0.5465690000000 1.0
C      1  0.5558930000000  0.4707340000000  0.4531830000000 1.0
C      1  0.4441530000000  0.4707340000000  0.5465690000000 1.0
C      1  0.4708580000000  0.4532060000000  0.5557450000000 1.0
C      1  0.4708580000000  0.5465920000000  0.4440060000000 1.0
C      1  0.5291870000000  0.5465920000000  0.5557450000000 1.0
C      1  0.5467160000000  0.4440290000000  0.4707110000000 1.0
C      1  0.5467160000000  0.5557680000000  0.5290400000000 1.0
C      1  0.4533300000000  0.5557680000000  0.4707110000000 1.0
C      1  0.4441530000000  0.4707340000000  0.4531830000000 1.0
C      1  0.5291870000000  0.5465920000000  0.4440060000000 1.0
C      1  0.4533300000000  0.5557680000000  0.5290400000000 1.0
C      1  0.5558930000000  0.4707340000000  0.5465690000000 1.0
C      1  0.5558930000000  0.5290630000000  0.4531830000000 1.0
C      1  0.4441530000000  0.5290630000000  0.5465690000000 1.0
C      1  0.4708580000000  0.5465920000000  0.5557450000000 1.0
C      1  0.4708580000000  0.4532060000000  0.4440060000000 1.0
C      1  0.5291870000000  0.4532060000000  0.5557450000000 1.0
C      1  0.5467160000000  0.5557680000000  0.4707110000000 1.0
C      1  0.5467160000000  0.4440290000000  0.5290400000000 1.0
C      1  0.4533300000000  0.4440290000000  0.4707110000000 1.0
C      1  0.4431880000000  0.5180420000000  0.4350070000000 1.0
C      1  0.5181660000000  0.4350300000000  0.4430410000000 1.0
C      1  0.4351540000000  0.4430640000000  0.5180190000000 1.0
C      1  0.5568570000000  0.5180420000000  0.5647450000000 1.0
C      1  0.5568570000000  0.4817560000000  0.4350070000000 1.0
C      1  0.4431880000000  0.4817560000000  0.5647450000000 1.0
C      1  0.4818800000000  0.4350300000000  0.5567100000000 1.0
C      1  0.4818800000000  0.5647670000000  0.4430410000000 1.0
C      1  0.5181660000000  0.5647670000000  0.5567100000000 1.0
C      1  0.5648920000000  0.4430640000000  0.4817330000000 1.0
C      1  0.5648920000000  0.5567330000000  0.5180190000000 1.0
C      1  0.4351540000000  0.5567330000000  0.4817330000000 1.0
C      1  0.4431880000000  0.4817560000000  0.4350070000000 1.0
C      1  0.5181660000000  0.5647670000000  0.4430410000000 1.0
C      1  0.4351540000000  0.5567330000000  0.5180190000000 1.0
C      1  0.5568570000000  0.4817560000000  0.5647450000000 1.0
C      1  0.5568570000000  0.5180420000000  0.4350070000000 1.0
C      1  0.4431880000000  0.5180420000000  0.5647450000000 1.0
C      1  0.4818800000000  0.5647670000000  0.5567100000000 1.0
C      1  0.4818800000000  0.4350300000000  0.4430410000000 1.0
C      1  0.5181660000000  0.4350300000000  0.5567100000000 1.0
C      1  0.5648920000000  0.5567330000000  0.4817330000000 1.0
C      1  0.5648920000000  0.4430640000000  0.5180190000000 1.0
C      1  0.4351540000000  0.4430640000000  0.4817330000000 1.0
C      1  0.4574660000000  0.5233630000000  0.4596140000000 1.0
C      1  0.5234870000000  0.4596370000000  0.4573190000000 1.0
C      1  0.4597610000000  0.4573420000000  0.5233400000000 1.0
C      1  0.5425800000000  0.5233630000000  0.5401380000000 1.0
C      1  0.5425800000000  0.4764350000000  0.4596140000000 1.0
C      1  0.4574660000000  0.4764350000000  0.5401380000000 1.0
C      1  0.4765590000000  0.4596370000000  0.5424330000000 1.0
C      1  0.4765590000000  0.5401610000000  0.4573190000000 1.0
C      1  0.5234870000000  0.5401610000000  0.5424330000000 1.0
C      1  0.5402850000000  0.4573420000000  0.4764120000000 1.0
C      1  0.5402850000000  0.5424560000000  0.5233400000000 1.0
C      1  0.4597610000000  0.5424560000000  0.4764120000000 1.0
C      1  0.4574660000000  0.4764350000000  0.4596140000000 1.0
C      1  0.5234870000000  0.5401610000000  0.4573190000000 1.0
C      1  0.4597610000000  0.5424560000000  0.5233400000000 1.0
C      1  0.5425800000000  0.4764350000000  0.5401380000000 1.0
C      1  0.5425800000000  0.5233630000000  0.4596140000000 1.0
C      1  0.4574660000000  0.5233630000000  0.5401380000000 1.0
C      1  0.4765590000000  0.5401610000000  0.5424330000000 1.0
C      1  0.4765590000000  0.4596370000000  0.4573190000000 1.0
C      1  0.5234870000000  0.4596370000000  0.5424330000000 1.0
C      1  0.5402850000000  0.5424560000000  0.4764120000000 1.0
C      1  0.5402850000000  0.4573420000000  0.5233400000000 1.0
C      1  0.4597610000000  0.4573420000000  0.4764120000000 1.0
C      1  0.4860460000000  0.5303710000000  0.5712280000000 1.0
C      1  0.5304950000000  0.5712500000000  0.4858990000000 1.0
C      1  0.5713750000000  0.4859210000000  0.5303480000000 1.0
C      1  0.5140000000000  0.5303710000000  0.4285240000000 1.0
C      1  0.5140000000000  0.4694270000000  0.5712280000000 1.0
C      1  0.4860460000000  0.4694270000000  0.4285240000000 1.0
C      1  0.4695510000000  0.5712500000000  0.5138530000000 1.0
C      1  0.4695510000000  0.4285470000000  0.4858990000000 1.0
C      1  0.5304950000000  0.4285470000000  0.5138530000000 1.0
C      1  0.4286710000000  0.4859210000000  0.4694040000000 1.0
C      1  0.4286710000000  0.5138760000000  0.5303480000000 1.0
C      1  0.5713750000000  0.5138760000000  0.4694040000000 1.0
C      1  0.4860460000000  0.4694270000000  0.5712280000000 1.0
C      1  0.5304950000000  0.4285470000000  0.4858990000000 1.0
C      1  0.5713750000000  0.5138760000000  0.5303480000000 1.0
C      1  0.5140000000000  0.4694270000000  0.4285240000000 1.0
C      1  0.5140000000000  0.5303710000000  0.5712280000000 1.0
C      1  0.4860460000000  0.5303710000000  0.4285240000000 1.0
C      1  0.4695510000000  0.4285470000000  0.5138530000000 1.0
C      1  0.4695510000000  0.5712500000000  0.4858990000000 1.0
C      1  0.5304950000000  0.5712500000000  0.5138530000000 1.0
C      1  0.4286710000000  0.5138760000000  0.4694040000000 1.0
C      1  0.4286710000000  0.4859210000000  0.5303480000000 1.0
C      1  0.5713750000000  0.4859210000000  0.4694040000000 1.0
C      1  0.4821650000000  0.4925720000000  0.4819870000000 1.0
C      1  0.4926960000000  0.4820090000000  0.4820180000000 1.0
C      1  0.4821340000000  0.4820410000000  0.4925490000000 1.0
C      1  0.5178800000000  0.4925720000000  0.5177650000000 1.0
C      1  0.5178800000000  0.5072260000000  0.4819870000000 1.0
C      1  0.4821650000000  0.5072260000000  0.5177650000000 1.0
C      1  0.5073500000000  0.4820090000000  0.5177330000000 1.0
C      1  0.5073500000000  0.5177880000000  0.4820180000000 1.0
C      1  0.4926960000000  0.5177880000000  0.5177330000000 1.0
C      1  0.5179120000000  0.4820410000000  0.5072030000000 1.0
C      1  0.5179120000000  0.5177560000000  0.4925490000000 1.0
C      1  0.4821340000000  0.5177560000000  0.5072030000000 1.0
C      1  0.4821650000000  0.5072260000000  0.4819870000000 1.0
C      1  0.4926960000000  0.5177880000000  0.4820180000000 1.0
C      1  0.4821340000000  0.5177560000000  0.4925490000000 1.0
C      1  0.5178800000000  0.5072260000000  0.5177650000000 1.0
C      1  0.5178800000000  0.4925720000000  0.4819870000000 1.0
C      1  0.4821650000000  0.4925720000000  0.5177650000000 1.0
C      1  0.5073500000000  0.5177880000000  0.5177330000000 1.0
C      1  0.5073500000000  0.4820090000000  0.4820180000000 1.0
C      1  0.4926960000000  0.4820090000000  0.5177330000000 1.0
C      1  0.5179120000000  0.5177560000000  0.5072030000000 1.0
C      1  0.5179120000000  0.4820410000000  0.4925490000000 1.0
C      1  0.4821340000000  0.4820410000000  0.5072030000000 1.0
C      1  0.5294090000000  0.5276810000000  0.4918260000000 1.0
C      1  0.5278050000000  0.4918490000000  0.5292620000000 1.0
C      1  0.4919730000000  0.5292850000000  0.5276580000000 1.0
C      1  0.4706370000000  0.5276810000000  0.5079260000000 1.0
C      1  0.4706370000000  0.4721170000000  0.4918260000000 1.0
C      1  0.5294090000000  0.4721170000000  0.5079260000000 1.0
C      1  0.4722410000000  0.4918490000000  0.4704900000000 1.0
C      1  0.4722410000000  0.5079490000000  0.5292620000000 1.0
C      1  0.5278050000000  0.5079490000000  0.4704900000000 1.0
C      1  0.5080730000000  0.5292850000000  0.4720940000000 1.0
C      1  0.5080730000000  0.4705130000000  0.5276580000000 1.0
C      1  0.4919730000000  0.4705130000000  0.4720940000000 1.0
C      1  0.5294090000000  0.4721170000000  0.4918260000000 1.0
C      1  0.5278050000000  0.5079490000000  0.5292620000000 1.0
C      1  0.4919730000000  0.4705130000000  0.5276580000000 1.0
C      1  0.4706370000000  0.4721170000000  0.5079260000000 1.0
C      1  0.4706370000000  0.5276810000000  0.4918260000000 1.0
C      1  0.5294090000000  0.5276810000000  0.5079260000000 1.0
C      1  0.4722410000000  0.5079490000000  0.4704900000000 1.0
C      1  0.4722410000000  0.4918490000000  0.5292620000000 1.0
C      1  0.5278050000000  0.4918490000000  0.4704900000000 1.0
C      1  0.5080730000000  0.4705130000000  0.4720940000000 1.0
C      1  0.5080730000000  0.5292850000000  0.5276580000000 1.0
C      1  0.4919730000000  0.5292850000000  0.4720940000000 1.0
C      1  0.5662280000000  0.5295860000000  0.4859230000000 1.0
C      1  0.5297100000000  0.4859450000000  0.5660810000000 1.0
C      1  0.4860700000000  0.5661040000000  0.5295630000000 1.0
C      1  0.4338180000000  0.5295860000000  0.5138290000000 1.0
C      1  0.4338180000000  0.4702110000000  0.4859230000000 1.0
C      1  0.5662280000000  0.4702110000000  0.5138290000000 1.0
C      1  0.4703360000000  0.4859450000000  0.4336710000000 1.0
C      1  0.4703360000000  0.5138520000000  0.5660810000000 1.0
C      1  0.5297100000000  0.5138520000000  0.4336710000000 1.0
C      1  0.5139760000000  0.5661040000000  0.4701880000000 1.0
C      1  0.5139760000000  0.4336940000000  0.5295630000000 1.0
C      1  0.4860700000000  0.4336940000000  0.4701880000000 1.0
C      1  0.5662280000000  0.4702110000000  0.4859230000000 1.0
C      1  0.5297100000000  0.5138520000000  0.5660810000000 1.0
C      1  0.4860700000000  0.4336940000000  0.5295630000000 1.0
C      1  0.4338180000000  0.4702110000000  0.5138290000000 1.0
C      1  0.4338180000000  0.5295860000000  0.4859230000000 1.0
C      1  0.5662280000000  0.5295860000000  0.5138290000000 1.0
C      1  0.4703360000000  0.5138520000000  0.4336710000000 1.0
C      1  0.4703360000000  0.4859450000000  0.5660810000000 1.0
C      1  0.5297100000000  0.4859450000000  0.4336710000000 1.0
C      1  0.5139760000000  0.4336940000000  0.4701880000000 1.0
C      1  0.5139760000000  0.5661040000000  0.5295630000000 1.0
C      1  0.4860700000000  0.5661040000000  0.4701880000000 1.0
C      1  0.4929090000000  0.4239220000000  0.4614970000000 1.0
C      1  0.4240470000000  0.4615200000000  0.4927620000000 1.0
C      1  0.4616440000000  0.4927850000000  0.4238990000000 1.0
C      1  0.5071370000000  0.4239220000000  0.5382550000000 1.0
C      1  0.5071370000000  0.5758750000000  0.4614970000000 1.0
C      1  0.4929090000000  0.5758750000000  0.5382550000000 1.0
C      1  0.5759990000000  0.4615200000000  0.5069900000000 1.0
C      1  0.5759990000000  0.5382780000000  0.4927620000000 1.0
C      1  0.4240470000000  0.5382780000000  0.5069900000000 1.0
C      1  0.5384020000000  0.4927850000000  0.5758520000000 1.0
C      1  0.5384020000000  0.5070130000000  0.4238990000000 1.0
C      1  0.4616440000000  0.5070130000000  0.5758520000000 1.0
C      1  0.4929090000000  0.5758750000000  0.4614970000000 1.0
C      1  0.4240470000000  0.5382780000000  0.4927620000000 1.0
C      1  0.4616440000000  0.5070130000000  0.4238990000000 1.0
C      1  0.5071370000000  0.5758750000000  0.5382550000000 1.0
C      1  0.5071370000000  0.4239220000000  0.4614970000000 1.0
C      1  0.4929090000000  0.4239220000000  0.5382550000000 1.0
C      1  0.5759990000000  0.5382780000000  0.5069900000000 1.0
C      1  0.5759990000000  0.4615200000000  0.4927620000000 1.0
C      1  0.4240470000000  0.4615200000000  0.5069900000000 1.0
C      1  0.5384020000000  0.5070130000000  0.5758520000000 1.0
C      1  0.5384020000000  0.4927850000000  0.4238990000000 1.0
C      1  0.4616440000000  0.4927850000000  0.5758520000000 1.0
C      1  0.5074680000000  0.5430600000000  0.5691620000000 1.0
C      1  0.5431840000000  0.5691850000000  0.5073210000000 1.0
C      1  0.5693100000000  0.5073440000000  0.5430370000000 1.0
C      1  0.4925780000000  0.5430600000000  0.4305890000000 1.0
C      1  0.4925780000000  0.4567380000000  0.5691620000000 1.0
C      1  0.5074680000000  0.4567380000000  0.4305890000000 1.0
C      1  0.4568620000000  0.5691850000000  0.4924310000000 1.0
C      1  0.4568620000000  0.4306120000000  0.5073210000000 1.0
C      1  0.5431840000000  0.4306120000000  0.4924310000000 1.0
C      1  0.4307360000000  0.5073440000000  0.4567150000000 1.0
C      1  0.4307360000000  0.4924540000000  0.5430370000000 1.0
C      1  0.5693100000000  0.4924540000000  0.4567150000000 1.0
C      1  0.5074680000000  0.4567380000000  0.5691620000000 1.0
C      1  0.5431840000000  0.4306120000000  0.5073210000000 1.0
C      1  0.5693100000000  0.4924540000000  0.5430370000000 1.0
C      1  0.4925780000000  0.4567380000000  0.4305890000000 1.0
C      1  0.4925780000000  0.5430600000000  0.5691620000000 1.0
C      1  0.5074680000000  0.5430600000000  0.4305890000000 1.0
C      1  0.4568620000000  0.4306120000000  0.4924310000000 1.0
C      1  0.4568620000000  0.5691850000000  0.5073210000000 1.0
C      1  0.5431840000000  0.5691850000000  0.4924310000000 1.0
C      1  0.4307360000000  0.4924540000000  0.4567150000000 1.0
C      1  0.4307360000000  0.5073440000000  0.5430370000000 1.0
C      1  0.5693100000000  0.5073440000000  0.4567150000000 1.0
C      1  0.4480740000000  0.5634790000000  0.4829480000000 1.0
C      1  0.5636030000000  0.4829710000000  0.4479270000000 1.0
C      1  0.4830950000000  0.4479500000000  0.5634560000000 1.0
C      1  0.5519720000000  0.5634790000000  0.5168030000000 1.0
C      1  0.5519720000000  0.4363190000000  0.4829480000000 1.0
C      1  0.4480740000000  0.4363190000000  0.5168030000000 1.0
C      1  0.4364430000000  0.4829710000000  0.5518250000000 1.0
C      1  0.4364430000000  0.5168260000000  0.4479270000000 1.0
C      1  0.5636030000000  0.5168260000000  0.5518250000000 1.0
C      1  0.5169500000000  0.4479500000000  0.4362960000000 1.0
C      1  0.5169500000000  0.5518480000000  0.5634560000000 1.0
C      1  0.4830950000000  0.5518480000000  0.4362960000000 1.0
C      1  0.4480740000000  0.4363190000000  0.4829480000000 1.0
C      1  0.5636030000000  0.5168260000000  0.4479270000000 1.0
C      1  0.4830950000000  0.5518480000000  0.5634560000000 1.0
C      1  0.5519720000000  0.4363190000000  0.5168030000000 1.0
C      1  0.5519720000000  0.5634790000000  0.4829480000000 1.0
C      1  0.4480740000000  0.5634790000000  0.5168030000000 1.0
C      1  0.4364430000000  0.5168260000000  0.5518250000000 1.0
C      1  0.4364430000000  0.4829710000000  0.4479270000000 1.0
C      1  0.5636030000000  0.4829710000000  0.5518250000000 1.0
C      1  0.5169500000000  0.5518480000000  0.4362960000000 1.0
C      1  0.5169500000000  0.4479500000000  0.5634560000000 1.0
C      1  0.4830950000000  0.4479500000000  0.4362960000000 1.0
C      1  0.4921370000000  0.5658660000000  0.4842200000000 1.0
C      1  0.5659910000000  0.4842430000000  0.4919900000000 1.0
C      1  0.4843670000000  0.4920130000000  0.5658440000000 1.0
C      1  0.5079090000000  0.5658660000000  0.5155320000000 1.0
C      1  0.5079090000000  0.4339310000000  0.4842200000000 1.0
C      1  0.4921370000000  0.4339310000000  0.5155320000000 1.0
C      1  0.4340550000000  0.4842430000000  0.5077620000000 1.0
C      1  0.4340550000000  0.5155550000000  0.4919900000000 1.0
C      1  0.5659910000000  0.5155550000000  0.5077620000000 1.0
C      1  0.5156790000000  0.4920130000000  0.4339080000000 1.0
C      1  0.5156790000000  0.5077840000000  0.5658440000000 1.0
C      1  0.4843670000000  0.5077840000000  0.4339080000000 1.0
C      1  0.4921370000000  0.4339310000000  0.4842200000000 1.0
C      1  0.5659910000000  0.5155550000000  0.4919900000000 1.0
C      1  0.4843670000000  0.5077840000000  0.5658440000000 1.0
C      1  0.5079090000000  0.4339310000000  0.5155320000000 1.0
C      1  0.5079090000000  0.5658660000000  0.4842200000000 1.0
C      1  0.4921370000000  0.5658660000000  0.5155320000000 1.0
C      1  0.4340550000000  0.5155550000000  0.5077620000000 1.0
C      1  0.4340550000000  0.4842430000000  0.4919900000000 1.0
C      1  0.5659910000000  0.4842430000000  0.5077620000000 1.0
C      1  0.5156790000000  0.5077840000000  0.4339080000000 1.0
C      1  0.5156790000000  0.4920130000000  0.5658440000000 1.0
C      1  0.4843670000000  0.4920130000000  0.4339080000000 1.0
C      1  0.4595810000000  0.5158620000000  0.4721050000000 1.0
C      1  0.5159860000000  0.4721280000000  0.4594330000000 1.0
C      1  0.4722520000000  0.4594560000000  0.5158390000000 1.0
C      1  0.5404650000000  0.5158620000000  0.5276460000000 1.0
C      1  0.5404650000000  0.4839360000000  0.4721050000000 1.0
C      1  0.4595810000000  0.4839360000000  0.5276460000000 1.0
C      1  0.4840600000000  0.4721280000000  0.5403180000000 1.0
C      1  0.4840600000000  0.5276690000000  0.4594330000000 1.0
C      1  0.5159860000000  0.5276690000000  0.5403180000000 1.0
C      1  0.5277930000000  0.4594560000000  0.4839130000000 1.0
C      1  0.5277930000000  0.5403410000000  0.5158390000000 1.0
C      1  0.4722520000000  0.5403410000000  0.4839130000000 1.0
C      1  0.4595810000000  0.4839360000000  0.4721050000000 1.0
C      1  0.5159860000000  0.5276690000000  0.4594330000000 1.0
C      1  0.4722520000000  0.5403410000000  0.5158390000000 1.0
C      1  0.5404650000000  0.4839360000000  0.5276460000000 1.0
C      1  0.5404650000000  0.5158620000000  0.4721050000000 1.0
C      1  0.4595810000000  0.5158620000000  0.5276460000000 1.0
C      1  0.4840600000000  0.5276690000000  0.5403180000000 1.0
C      1  0.4840600000000  0.4721280000000  0.4594330000000 1.0
C      1  0.5159860000000  0.4721280000000  0.5403180000000 1.0
C      1  0.5277930000000  0.5403410000000  0.4839130000000 1.0
C      1  0.5277930000000  0.4594560000000  0.5158390000000 1.0
C      1  0.4722520000000  0.4594560000000  0.4839130000000 1.0
C      1  0.4491500000000  0.4874220000000  0.5068480000000 1.0
C      1  0.4875460000000  0.5068710000000  0.4490030000000 1.0
C      1  0.5069950000000  0.4490260000000  0.4873990000000 1.0
C      1  0.5508960000000  0.4874220000000  0.4929030000000 1.0
C      1  0.5508960000000  0.5123750000000  0.5068480000000 1.0
C      1  0.4491500000000  0.5123750000000  0.4929030000000 1.0
C      1  0.5124990000000  0.5068710000000  0.5507490000000 1.0
C      1  0.5124990000000  0.4929260000000  0.4490030000000 1.0
C      1  0.4875460000000  0.4929260000000  0.5507490000000 1.0
C      1  0.4930500000000  0.4490260000000  0.5123520000000 1.0
C      1  0.4930500000000  0.5507720000000  0.4873990000000 1.0
C      1  0.5069950000000  0.5507720000000  0.5123520000000 1.0
C      1  0.4491500000000  0.5123750000000  0.5068480000000 1.0
C      1  0.4875460000000  0.4929260000000  0.4490030000000 1.0
C      1  0.5069950000000  0.5507720000000  0.4873990000000 1.0
C      1  0.5508960000000  0.5123750000000  0.4929030000000 1.0
C      1  0.5508960000000  0.4874220000000  0.5068480000000 1.0
C      1  0.4491500000000  0.4874220000000  0.4929030000000 1.0
C      1  0.5124990000000  0.4929260000000  0.5507490000000 1.0
C      1  0.5124990000000  0.5068710000000  0.4490030000000 1.0
C      1  0.4875460000000  0.5068710000000  0.5507490000000 1.0
C      1  0.4930500000000  0.5507720000000  0.5123520000000 1.0
C      1  0.4930500000000  0.4490260000000  0.4873990000000 1.0
C      1  0.5069950000000  0.4490260000000  0.5123520000000 1.0
C      1  0.5141100000000  0.4573600000000  0.4781400000000 1.0
C      1  0.4574840000000  0.4781630000000  0.5139630000000 1.0
C      1  0.4782870000000  0.5139860000000  0.4573370000000 1.0
C      1  0.4859360000000  0.4573600000000  0.5216120000000 1.0
C      1  0.4859360000000  0.5424370000000  0.4781400000000 1.0
C      1  0.5141100000000  0.5424370000000  0.5216120000000 1.0
C      1  0.5425620000000  0.4781630000000  0.4857890000000 1.0
C      1  0.5425620000000  0.5216350000000  0.5139630000000 1.0
C      1  0.4574840000000  0.5216350000000  0.4857890000000 1.0
C      1  0.5217590000000  0.5139860000000  0.5424140000000 1.0
C      1  0.5217590000000  0.4858110000000  0.4573370000000 1.0
C      1  0.4782870000000  0.4858110000000  0.5424140000000 1.0
C      1  0.5141100000000  0.5424370000000  0.4781400000000 1.0
C      1  0.4574840000000  0.5216350000000  0.5139630000000 1.0
C      1  0.4782870000000  0.4858110000000  0.4573370000000 1.0
C      1  0.4859360000000  0.5424370000000  0.5216120000000 1.0
C      1  0.4859360000000  0.4573600000000  0.4781400000000 1.0
C      1  0.5141100000000  0.4573600000000  0.5216120000000 1.0
C      1  0.5425620000000  0.5216350000000  0.4857890000000 1.0
C      1  0.5425620000000  0.4781630000000  0.5139630000000 1.0
C      1  0.4574840000000  0.4781630000000  0.4857890000000 1.0
C      1  0.5217590000000  0.4858110000000  0.5424140000000 1.0
C      1  0.5217590000000  0.5139860000000  0.4573370000000 1.0
C      1  0.4782870000000  0.5139860000000  0.5424140000000 1.0
C      1  0.5409190000000  0.4998990000000  0.4508320000000 1.0
C      1  0.4591270000000  0.4998990000000  0.5489200000000 1.0
C      1  0.5000230000000  0.4508550000000  0.5407710000000 1.0
C      1  0.4509790000000  0.5407940000000  0.4998760000000 1.0
C      1  0.5000230000000  0.5489430000000  0.4589800000000 1.0
C      1  0.5490670000000  0.4590030000000  0.4998760000000 1.0
C      1  0.4591270000000  0.4998990000000  0.4508320000000 1.0
C      1  0.5409190000000  0.4998990000000  0.5489200000000 1.0
C      1  0.5000230000000  0.4508550000000  0.4589800000000 1.0
C      1  0.5000230000000  0.5489430000000  0.5407710000000 1.0
C      1  0.5490670000000  0.5407940000000  0.4998760000000 1.0
C      1  0.4509790000000  0.4590030000000  0.4998760000000 1.0
C      1  0.4651180000000  0.5348030000000  0.5347810000000 1.0
C      1  0.5349280000000  0.4649940000000  0.4649710000000 1.0
C      1  0.4651180000000  0.4649940000000  0.4649710000000 1.0
C      1  0.5349280000000  0.4649940000000  0.5347810000000 1.0
C      1  0.5349280000000  0.5348030000000  0.4649710000000 1.0
C      1  0.4651180000000  0.5348030000000  0.4649710000000 1.0
C      1  0.5349280000000  0.5348030000000  0.5347810000000 1.0
C      1  0.4651180000000  0.4649940000000  0.5347810000000 1.0
END
