TITL C-1892075-7045-31 1.15334131626771e-06 1000000 -3321.20116303121 0 0 480 (Th) n - 1
REM
REM in /nfs/bkarasulu/CARBON/AIRSS/Generating-Clusters/GAP-ML-2020/Higher-Symm/Selected-Sizes/TryA-Only_Ih-Symm/Larger-Clusters
REM
REM
REM
REM
REM
REM ./C.cell (2cf5181f0f1d4d5b12b972d32ad12063)
REM
REM compiler GCC version 9.2.1 20190827 (Red Hat 9.2.1-1)
REM options -cpp -mtune=generic -march=x86-64 -g -O0 -fpre-include=/usr/include/finclude/math-vector-fortran.h
REM seed -211802524 2018738373 -855022240 1262016653 -1573785685 -1801541525 1723071432 1314514252 605361329 609170268 1924953150 715160392 1881595700 -1339146135 1967100456 -860813364 1950256547 -1003365073 149442121 -1588095158 726501828 -775631509 315817965 -1174087349 -2018312964 -323337034 -1417268363 -1562768596 1822616520 -2109455764 -1078136308 24518948 845118895
REM
CELL 1.54180  100.00000  100.00000  100.00000   90.00000   90.00000   90.00000
LATT -1
SFAC C  
C      1  0.5137680000000  0.4756430000000  0.4311760000000 1.0
C      1  0.4756430000000  0.4311760000000  0.5137680000000 1.0
C      1  0.4311760000000  0.5137680000000  0.4756430000000 1.0
C      1  0.4862320000000  0.4756430000000  0.5688240000000 1.0
C      1  0.4862320000000  0.5243570000000  0.4311760000000 1.0
C      1  0.5137680000000  0.5243570000000  0.5688240000000 1.0
C      1  0.5243570000000  0.4311760000000  0.4862320000000 1.0
C      1  0.5243570000000  0.5688240000000  0.5137680000000 1.0
C      1  0.4756430000000  0.5688240000000  0.4862320000000 1.0
C      1  0.5688240000000  0.5137680000000  0.5243570000000 1.0
C      1  0.5688240000000  0.4862320000000  0.4756430000000 1.0
C      1  0.4311760000000  0.4862320000000  0.5243570000000 1.0
C      1  0.5137680000000  0.5243570000000  0.4311760000000 1.0
C      1  0.4756430000000  0.5688240000000  0.5137680000000 1.0
C      1  0.4311760000000  0.4862320000000  0.4756430000000 1.0
C      1  0.4862320000000  0.5243570000000  0.5688240000000 1.0
C      1  0.4862320000000  0.4756430000000  0.4311760000000 1.0
C      1  0.5137680000000  0.4756430000000  0.5688240000000 1.0
C      1  0.5243570000000  0.5688240000000  0.4862320000000 1.0
C      1  0.5243570000000  0.4311760000000  0.5137680000000 1.0
C      1  0.4756430000000  0.4311760000000  0.4862320000000 1.0
C      1  0.5688240000000  0.4862320000000  0.5243570000000 1.0
C      1  0.5688240000000  0.5137680000000  0.4756430000000 1.0
C      1  0.4311760000000  0.5137680000000  0.5243570000000 1.0
C      1  0.4363990000000  0.5180170000000  0.5380390000000 1.0
C      1  0.5180170000000  0.5380390000000  0.4363990000000 1.0
C      1  0.5380390000000  0.4363990000000  0.5180170000000 1.0
C      1  0.5636010000000  0.5180170000000  0.4619610000000 1.0
C      1  0.5636010000000  0.4819830000000  0.5380390000000 1.0
C      1  0.4363990000000  0.4819830000000  0.4619610000000 1.0
C      1  0.4819830000000  0.5380390000000  0.5636010000000 1.0
C      1  0.4819830000000  0.4619610000000  0.4363990000000 1.0
C      1  0.5180170000000  0.4619610000000  0.5636010000000 1.0
C      1  0.4619610000000  0.4363990000000  0.4819830000000 1.0
C      1  0.4619610000000  0.5636010000000  0.5180170000000 1.0
C      1  0.5380390000000  0.5636010000000  0.4819830000000 1.0
C      1  0.4363990000000  0.4819830000000  0.5380390000000 1.0
C      1  0.5180170000000  0.4619610000000  0.4363990000000 1.0
C      1  0.5380390000000  0.5636010000000  0.5180170000000 1.0
C      1  0.5636010000000  0.4819830000000  0.4619610000000 1.0
C      1  0.5636010000000  0.5180170000000  0.5380390000000 1.0
C      1  0.4363990000000  0.5180170000000  0.4619610000000 1.0
C      1  0.4819830000000  0.4619610000000  0.5636010000000 1.0
C      1  0.4819830000000  0.5380390000000  0.4363990000000 1.0
C      1  0.5180170000000  0.5380390000000  0.5636010000000 1.0
C      1  0.4619610000000  0.5636010000000  0.4819830000000 1.0
C      1  0.4619610000000  0.4363990000000  0.5180170000000 1.0
C      1  0.5380390000000  0.4363990000000  0.4819830000000 1.0
C      1  0.5137010000000  0.5658760000000  0.5408840000000 1.0
C      1  0.5658760000000  0.5408840000000  0.5137010000000 1.0
C      1  0.5408840000000  0.5137010000000  0.5658760000000 1.0
C      1  0.4862990000000  0.5658760000000  0.4591160000000 1.0
C      1  0.4862990000000  0.4341240000000  0.5408840000000 1.0
C      1  0.5137010000000  0.4341240000000  0.4591160000000 1.0
C      1  0.4341240000000  0.5408840000000  0.4862990000000 1.0
C      1  0.4341240000000  0.4591160000000  0.5137010000000 1.0
C      1  0.5658760000000  0.4591160000000  0.4862990000000 1.0
C      1  0.4591160000000  0.5137010000000  0.4341240000000 1.0
C      1  0.4591160000000  0.4862990000000  0.5658760000000 1.0
C      1  0.5408840000000  0.4862990000000  0.4341240000000 1.0
C      1  0.5137010000000  0.4341240000000  0.5408840000000 1.0
C      1  0.5658760000000  0.4591160000000  0.5137010000000 1.0
C      1  0.5408840000000  0.4862990000000  0.5658760000000 1.0
C      1  0.4862990000000  0.4341240000000  0.4591160000000 1.0
C      1  0.4862990000000  0.5658760000000  0.5408840000000 1.0
C      1  0.5137010000000  0.5658760000000  0.4591160000000 1.0
C      1  0.4341240000000  0.4591160000000  0.4862990000000 1.0
C      1  0.4341240000000  0.5408840000000  0.5137010000000 1.0
C      1  0.5658760000000  0.5408840000000  0.4862990000000 1.0
C      1  0.4591160000000  0.4862990000000  0.4341240000000 1.0
C      1  0.4591160000000  0.5137010000000  0.5658760000000 1.0
C      1  0.5408840000000  0.5137010000000  0.4341240000000 1.0
C      1  0.4880060000000  0.4696460000000  0.5284270000000 1.0
C      1  0.4696460000000  0.5284270000000  0.4880060000000 1.0
C      1  0.5284270000000  0.4880060000000  0.4696460000000 1.0
C      1  0.5119940000000  0.4696460000000  0.4715730000000 1.0
C      1  0.5119940000000  0.5303540000000  0.5284270000000 1.0
C      1  0.4880060000000  0.5303540000000  0.4715730000000 1.0
C      1  0.5303540000000  0.5284270000000  0.5119940000000 1.0
C      1  0.5303540000000  0.4715730000000  0.4880060000000 1.0
C      1  0.4696460000000  0.4715730000000  0.5119940000000 1.0
C      1  0.4715730000000  0.4880060000000  0.5303540000000 1.0
C      1  0.4715730000000  0.5119940000000  0.4696460000000 1.0
C      1  0.5284270000000  0.5119940000000  0.5303540000000 1.0
C      1  0.4880060000000  0.5303540000000  0.5284270000000 1.0
C      1  0.4696460000000  0.4715730000000  0.4880060000000 1.0
C      1  0.5284270000000  0.5119940000000  0.4696460000000 1.0
C      1  0.5119940000000  0.5303540000000  0.4715730000000 1.0
C      1  0.5119940000000  0.4696460000000  0.5284270000000 1.0
C      1  0.4880060000000  0.4696460000000  0.4715730000000 1.0
C      1  0.5303540000000  0.4715730000000  0.5119940000000 1.0
C      1  0.5303540000000  0.5284270000000  0.4880060000000 1.0
C      1  0.4696460000000  0.5284270000000  0.5119940000000 1.0
C      1  0.4715730000000  0.5119940000000  0.5303540000000 1.0
C      1  0.4715730000000  0.4880060000000  0.4696460000000 1.0
C      1  0.5284270000000  0.4880060000000  0.5303540000000 1.0
C      1  0.4521550000000  0.4873020000000  0.4856200000000 1.0
C      1  0.4873020000000  0.4856200000000  0.4521550000000 1.0
C      1  0.4856200000000  0.4521550000000  0.4873020000000 1.0
C      1  0.5478450000000  0.4873020000000  0.5143800000000 1.0
C      1  0.5478450000000  0.5126980000000  0.4856200000000 1.0
C      1  0.4521550000000  0.5126980000000  0.5143800000000 1.0
C      1  0.5126980000000  0.4856200000000  0.5478450000000 1.0
C      1  0.5126980000000  0.5143800000000  0.4521550000000 1.0
C      1  0.4873020000000  0.5143800000000  0.5478450000000 1.0
C      1  0.5143800000000  0.4521550000000  0.5126980000000 1.0
C      1  0.5143800000000  0.5478450000000  0.4873020000000 1.0
C      1  0.4856200000000  0.5478450000000  0.5126980000000 1.0
C      1  0.4521550000000  0.5126980000000  0.4856200000000 1.0
C      1  0.4873020000000  0.5143800000000  0.4521550000000 1.0
C      1  0.4856200000000  0.5478450000000  0.4873020000000 1.0
C      1  0.5478450000000  0.5126980000000  0.5143800000000 1.0
C      1  0.5478450000000  0.4873020000000  0.4856200000000 1.0
C      1  0.4521550000000  0.4873020000000  0.5143800000000 1.0
C      1  0.5126980000000  0.5143800000000  0.5478450000000 1.0
C      1  0.5126980000000  0.4856200000000  0.4521550000000 1.0
C      1  0.4873020000000  0.4856200000000  0.5478450000000 1.0
C      1  0.5143800000000  0.5478450000000  0.5126980000000 1.0
C      1  0.5143800000000  0.4521550000000  0.4873020000000 1.0
C      1  0.4856200000000  0.4521550000000  0.5126980000000 1.0
C      1  0.5140450000000  0.5774280000000  0.4822230000000 1.0
C      1  0.5774280000000  0.4822230000000  0.5140450000000 1.0
C      1  0.4822230000000  0.5140450000000  0.5774280000000 1.0
C      1  0.4859550000000  0.5774280000000  0.5177770000000 1.0
C      1  0.4859550000000  0.4225720000000  0.4822230000000 1.0
C      1  0.5140450000000  0.4225720000000  0.5177770000000 1.0
C      1  0.4225720000000  0.4822230000000  0.4859550000000 1.0
C      1  0.4225720000000  0.5177770000000  0.5140450000000 1.0
C      1  0.5774280000000  0.5177770000000  0.4859550000000 1.0
C      1  0.5177770000000  0.5140450000000  0.4225720000000 1.0
C      1  0.5177770000000  0.4859550000000  0.5774280000000 1.0
C      1  0.4822230000000  0.4859550000000  0.4225720000000 1.0
C      1  0.5140450000000  0.4225720000000  0.4822230000000 1.0
C      1  0.5774280000000  0.5177770000000  0.5140450000000 1.0
C      1  0.4822230000000  0.4859550000000  0.5774280000000 1.0
C      1  0.4859550000000  0.4225720000000  0.5177770000000 1.0
C      1  0.4859550000000  0.5774280000000  0.4822230000000 1.0
C      1  0.5140450000000  0.5774280000000  0.5177770000000 1.0
C      1  0.4225720000000  0.5177770000000  0.4859550000000 1.0
C      1  0.4225720000000  0.4822230000000  0.5140450000000 1.0
C      1  0.5774280000000  0.4822230000000  0.4859550000000 1.0
C      1  0.5177770000000  0.4859550000000  0.4225720000000 1.0
C      1  0.5177770000000  0.5140450000000  0.5774280000000 1.0
C      1  0.4822230000000  0.5140450000000  0.4225720000000 1.0
C      1  0.5846820000000  0.4926130000000  0.5071860000000 1.0
C      1  0.4926130000000  0.5071860000000  0.5846820000000 1.0
C      1  0.5071860000000  0.5846820000000  0.4926130000000 1.0
C      1  0.4153180000000  0.4926130000000  0.4928140000000 1.0
C      1  0.4153180000000  0.5073870000000  0.5071860000000 1.0
C      1  0.5846820000000  0.5073870000000  0.4928140000000 1.0
C      1  0.5073870000000  0.5071860000000  0.4153180000000 1.0
C      1  0.5073870000000  0.4928140000000  0.5846820000000 1.0
C      1  0.4926130000000  0.4928140000000  0.4153180000000 1.0
C      1  0.4928140000000  0.5846820000000  0.5073870000000 1.0
C      1  0.4928140000000  0.4153180000000  0.4926130000000 1.0
C      1  0.5071860000000  0.4153180000000  0.5073870000000 1.0
C      1  0.5846820000000  0.5073870000000  0.5071860000000 1.0
C      1  0.4926130000000  0.4928140000000  0.5846820000000 1.0
C      1  0.5071860000000  0.4153180000000  0.4926130000000 1.0
C      1  0.4153180000000  0.5073870000000  0.4928140000000 1.0
C      1  0.4153180000000  0.4926130000000  0.5071860000000 1.0
C      1  0.5846820000000  0.4926130000000  0.4928140000000 1.0
C      1  0.5073870000000  0.4928140000000  0.4153180000000 1.0
C      1  0.5073870000000  0.5071860000000  0.5846820000000 1.0
C      1  0.4926130000000  0.5071860000000  0.4153180000000 1.0
C      1  0.4928140000000  0.4153180000000  0.5073870000000 1.0
C      1  0.4928140000000  0.5846820000000  0.4926130000000 1.0
C      1  0.5071860000000  0.5846820000000  0.5073870000000 1.0
C      1  0.5077400000000  0.4556880000000  0.5252740000000 1.0
C      1  0.4556880000000  0.5252740000000  0.5077400000000 1.0
C      1  0.5252740000000  0.5077400000000  0.4556880000000 1.0
C      1  0.4922600000000  0.4556880000000  0.4747260000000 1.0
C      1  0.4922600000000  0.5443120000000  0.5252740000000 1.0
C      1  0.5077400000000  0.5443120000000  0.4747260000000 1.0
C      1  0.5443120000000  0.5252740000000  0.4922600000000 1.0
C      1  0.5443120000000  0.4747260000000  0.5077400000000 1.0
C      1  0.4556880000000  0.4747260000000  0.4922600000000 1.0
C      1  0.4747260000000  0.5077400000000  0.5443120000000 1.0
C      1  0.4747260000000  0.4922600000000  0.4556880000000 1.0
C      1  0.5252740000000  0.4922600000000  0.5443120000000 1.0
C      1  0.5077400000000  0.5443120000000  0.5252740000000 1.0
C      1  0.4556880000000  0.4747260000000  0.5077400000000 1.0
C      1  0.5252740000000  0.4922600000000  0.4556880000000 1.0
C      1  0.4922600000000  0.5443120000000  0.4747260000000 1.0
C      1  0.4922600000000  0.4556880000000  0.5252740000000 1.0
C      1  0.5077400000000  0.4556880000000  0.4747260000000 1.0
C      1  0.5443120000000  0.4747260000000  0.4922600000000 1.0
C      1  0.5443120000000  0.5252740000000  0.5077400000000 1.0
C      1  0.4556880000000  0.5252740000000  0.4922600000000 1.0
C      1  0.4747260000000  0.4922600000000  0.5443120000000 1.0
C      1  0.4747260000000  0.5077400000000  0.4556880000000 1.0
C      1  0.5252740000000  0.5077400000000  0.5443120000000 1.0
C      1  0.5298230000000  0.5068970000000  0.4261790000000 1.0
C      1  0.5068970000000  0.4261790000000  0.5298230000000 1.0
C      1  0.4261790000000  0.5298230000000  0.5068970000000 1.0
C      1  0.4701770000000  0.5068970000000  0.5738210000000 1.0
C      1  0.4701770000000  0.4931030000000  0.4261790000000 1.0
C      1  0.5298230000000  0.4931030000000  0.5738210000000 1.0
C      1  0.4931030000000  0.4261790000000  0.4701770000000 1.0
C      1  0.4931030000000  0.5738210000000  0.5298230000000 1.0
C      1  0.5068970000000  0.5738210000000  0.4701770000000 1.0
C      1  0.5738210000000  0.5298230000000  0.4931030000000 1.0
C      1  0.5738210000000  0.4701770000000  0.5068970000000 1.0
C      1  0.4261790000000  0.4701770000000  0.4931030000000 1.0
C      1  0.5298230000000  0.4931030000000  0.4261790000000 1.0
C      1  0.5068970000000  0.5738210000000  0.5298230000000 1.0
C      1  0.4261790000000  0.4701770000000  0.5068970000000 1.0
C      1  0.4701770000000  0.4931030000000  0.5738210000000 1.0
C      1  0.4701770000000  0.5068970000000  0.4261790000000 1.0
C      1  0.5298230000000  0.5068970000000  0.5738210000000 1.0
C      1  0.4931030000000  0.5738210000000  0.4701770000000 1.0
C      1  0.4931030000000  0.4261790000000  0.5298230000000 1.0
C      1  0.5068970000000  0.4261790000000  0.4701770000000 1.0
C      1  0.5738210000000  0.4701770000000  0.4931030000000 1.0
C      1  0.5738210000000  0.5298230000000  0.5068970000000 1.0
C      1  0.4261790000000  0.5298230000000  0.4931030000000 1.0
C      1  0.4635210000000  0.5260130000000  0.5359670000000 1.0
C      1  0.5260130000000  0.5359670000000  0.4635210000000 1.0
C      1  0.5359670000000  0.4635210000000  0.5260130000000 1.0
C      1  0.5364790000000  0.5260130000000  0.4640330000000 1.0
C      1  0.5364790000000  0.4739870000000  0.5359670000000 1.0
C      1  0.4635210000000  0.4739870000000  0.4640330000000 1.0
C      1  0.4739870000000  0.5359670000000  0.5364790000000 1.0
C      1  0.4739870000000  0.4640330000000  0.4635210000000 1.0
C      1  0.5260130000000  0.4640330000000  0.5364790000000 1.0
C      1  0.4640330000000  0.4635210000000  0.4739870000000 1.0
C      1  0.4640330000000  0.5364790000000  0.5260130000000 1.0
C      1  0.5359670000000  0.5364790000000  0.4739870000000 1.0
C      1  0.4635210000000  0.4739870000000  0.5359670000000 1.0
C      1  0.5260130000000  0.4640330000000  0.4635210000000 1.0
C      1  0.5359670000000  0.5364790000000  0.5260130000000 1.0
C      1  0.5364790000000  0.4739870000000  0.4640330000000 1.0
C      1  0.5364790000000  0.5260130000000  0.5359670000000 1.0
C      1  0.4635210000000  0.5260130000000  0.4640330000000 1.0
C      1  0.4739870000000  0.4640330000000  0.5364790000000 1.0
C      1  0.4739870000000  0.5359670000000  0.4635210000000 1.0
C      1  0.5260130000000  0.5359670000000  0.5364790000000 1.0
C      1  0.4640330000000  0.5364790000000  0.4739870000000 1.0
C      1  0.4640330000000  0.4635210000000  0.5260130000000 1.0
C      1  0.5359670000000  0.4635210000000  0.4739870000000 1.0
C      1  0.5537510000000  0.4928030000000  0.5697800000000 1.0
C      1  0.4928030000000  0.5697800000000  0.5537510000000 1.0
C      1  0.5697800000000  0.5537510000000  0.4928030000000 1.0
C      1  0.4462490000000  0.4928030000000  0.4302200000000 1.0
C      1  0.4462490000000  0.5071970000000  0.5697800000000 1.0
C      1  0.5537510000000  0.5071970000000  0.4302200000000 1.0
C      1  0.5071970000000  0.5697800000000  0.4462490000000 1.0
C      1  0.5071970000000  0.4302200000000  0.5537510000000 1.0
C      1  0.4928030000000  0.4302200000000  0.4462490000000 1.0
C      1  0.4302200000000  0.5537510000000  0.5071970000000 1.0
C      1  0.4302200000000  0.4462490000000  0.4928030000000 1.0
C      1  0.5697800000000  0.4462490000000  0.5071970000000 1.0
C      1  0.5537510000000  0.5071970000000  0.5697800000000 1.0
C      1  0.4928030000000  0.4302200000000  0.5537510000000 1.0
C      1  0.5697800000000  0.4462490000000  0.4928030000000 1.0
C      1  0.4462490000000  0.5071970000000  0.4302200000000 1.0
C      1  0.4462490000000  0.4928030000000  0.5697800000000 1.0
C      1  0.5537510000000  0.4928030000000  0.4302200000000 1.0
C      1  0.5071970000000  0.4302200000000  0.4462490000000 1.0
C      1  0.5071970000000  0.5697800000000  0.5537510000000 1.0
C      1  0.4928030000000  0.5697800000000  0.4462490000000 1.0
C      1  0.4302200000000  0.4462490000000  0.5071970000000 1.0
C      1  0.4302200000000  0.5537510000000  0.4928030000000 1.0
C      1  0.5697800000000  0.5537510000000  0.5071970000000 1.0
C      1  0.4523250000000  0.5688020000000  0.4926330000000 1.0
C      1  0.5688020000000  0.4926330000000  0.4523250000000 1.0
C      1  0.4926330000000  0.4523250000000  0.5688020000000 1.0
C      1  0.5476750000000  0.5688020000000  0.5073670000000 1.0
C      1  0.5476750000000  0.4311980000000  0.4926330000000 1.0
C      1  0.4523250000000  0.4311980000000  0.5073670000000 1.0
C      1  0.4311980000000  0.4926330000000  0.5476750000000 1.0
C      1  0.4311980000000  0.5073670000000  0.4523250000000 1.0
C      1  0.5688020000000  0.5073670000000  0.5476750000000 1.0
C      1  0.5073670000000  0.4523250000000  0.4311980000000 1.0
C      1  0.5073670000000  0.5476750000000  0.5688020000000 1.0
C      1  0.4926330000000  0.5476750000000  0.4311980000000 1.0
C      1  0.4523250000000  0.4311980000000  0.4926330000000 1.0
C      1  0.5688020000000  0.5073670000000  0.4523250000000 1.0
C      1  0.4926330000000  0.5476750000000  0.5688020000000 1.0
C      1  0.5476750000000  0.4311980000000  0.5073670000000 1.0
C      1  0.5476750000000  0.5688020000000  0.4926330000000 1.0
C      1  0.4523250000000  0.5688020000000  0.5073670000000 1.0
C      1  0.4311980000000  0.5073670000000  0.5476750000000 1.0
C      1  0.4311980000000  0.4926330000000  0.4523250000000 1.0
C      1  0.5688020000000  0.4926330000000  0.5476750000000 1.0
C      1  0.5073670000000  0.5476750000000  0.4311980000000 1.0
C      1  0.5073670000000  0.4523250000000  0.5688020000000 1.0
C      1  0.4926330000000  0.4523250000000  0.4311980000000 1.0
C      1  0.5148930000000  0.4394220000000  0.4929640000000 1.0
C      1  0.4394220000000  0.4929640000000  0.5148930000000 1.0
C      1  0.4929640000000  0.5148930000000  0.4394220000000 1.0
C      1  0.4851070000000  0.4394220000000  0.5070360000000 1.0
C      1  0.4851070000000  0.5605780000000  0.4929640000000 1.0
C      1  0.5148930000000  0.5605780000000  0.5070360000000 1.0
C      1  0.5605780000000  0.4929640000000  0.4851070000000 1.0
C      1  0.5605780000000  0.5070360000000  0.5148930000000 1.0
C      1  0.4394220000000  0.5070360000000  0.4851070000000 1.0
C      1  0.5070360000000  0.5148930000000  0.5605780000000 1.0
C      1  0.5070360000000  0.4851070000000  0.4394220000000 1.0
C      1  0.4929640000000  0.4851070000000  0.5605780000000 1.0
C      1  0.5148930000000  0.5605780000000  0.4929640000000 1.0
C      1  0.4394220000000  0.5070360000000  0.5148930000000 1.0
C      1  0.4929640000000  0.4851070000000  0.4394220000000 1.0
C      1  0.4851070000000  0.5605780000000  0.5070360000000 1.0
C      1  0.4851070000000  0.4394220000000  0.4929640000000 1.0
C      1  0.5148930000000  0.4394220000000  0.5070360000000 1.0
C      1  0.5605780000000  0.5070360000000  0.4851070000000 1.0
C      1  0.5605780000000  0.4929640000000  0.5148930000000 1.0
C      1  0.4394220000000  0.4929640000000  0.4851070000000 1.0
C      1  0.5070360000000  0.4851070000000  0.5605780000000 1.0
C      1  0.5070360000000  0.5148930000000  0.4394220000000 1.0
C      1  0.4929640000000  0.5148930000000  0.5605780000000 1.0
C      1  0.5393580000000  0.5476060000000  0.4845980000000 1.0
C      1  0.5476060000000  0.4845980000000  0.5393580000000 1.0
C      1  0.4845980000000  0.5393580000000  0.5476060000000 1.0
C      1  0.4606420000000  0.5476060000000  0.5154020000000 1.0
C      1  0.4606420000000  0.4523940000000  0.4845980000000 1.0
C      1  0.5393580000000  0.4523940000000  0.5154020000000 1.0
C      1  0.4523940000000  0.4845980000000  0.4606420000000 1.0
C      1  0.4523940000000  0.5154020000000  0.5393580000000 1.0
C      1  0.5476060000000  0.5154020000000  0.4606420000000 1.0
C      1  0.5154020000000  0.5393580000000  0.4523940000000 1.0
C      1  0.5154020000000  0.4606420000000  0.5476060000000 1.0
C      1  0.4845980000000  0.4606420000000  0.4523940000000 1.0
C      1  0.5393580000000  0.4523940000000  0.4845980000000 1.0
C      1  0.5476060000000  0.5154020000000  0.5393580000000 1.0
C      1  0.4845980000000  0.4606420000000  0.5476060000000 1.0
C      1  0.4606420000000  0.4523940000000  0.5154020000000 1.0
C      1  0.4606420000000  0.5476060000000  0.4845980000000 1.0
C      1  0.5393580000000  0.5476060000000  0.5154020000000 1.0
C      1  0.4523940000000  0.5154020000000  0.4606420000000 1.0
C      1  0.4523940000000  0.4845980000000  0.5393580000000 1.0
C      1  0.5476060000000  0.4845980000000  0.4606420000000 1.0
C      1  0.5154020000000  0.4606420000000  0.4523940000000 1.0
C      1  0.5154020000000  0.5393580000000  0.5476060000000 1.0
C      1  0.4845980000000  0.5393580000000  0.4523940000000 1.0
C      1  0.5195590000000  0.4815420000000  0.4922650000000 1.0
C      1  0.4815420000000  0.4922650000000  0.5195590000000 1.0
C      1  0.4922650000000  0.5195590000000  0.4815420000000 1.0
C      1  0.4804410000000  0.4815420000000  0.5077350000000 1.0
C      1  0.4804410000000  0.5184580000000  0.4922650000000 1.0
C      1  0.5195590000000  0.5184580000000  0.5077350000000 1.0
C      1  0.5184580000000  0.4922650000000  0.4804410000000 1.0
C      1  0.5184580000000  0.5077350000000  0.5195590000000 1.0
C      1  0.4815420000000  0.5077350000000  0.4804410000000 1.0
C      1  0.5077350000000  0.5195590000000  0.5184580000000 1.0
C      1  0.5077350000000  0.4804410000000  0.4815420000000 1.0
C      1  0.4922650000000  0.4804410000000  0.5184580000000 1.0
C      1  0.5195590000000  0.5184580000000  0.4922650000000 1.0
C      1  0.4815420000000  0.5077350000000  0.5195590000000 1.0
C      1  0.4922650000000  0.4804410000000  0.4815420000000 1.0
C      1  0.4804410000000  0.5184580000000  0.5077350000000 1.0
C      1  0.4804410000000  0.4815420000000  0.4922650000000 1.0
C      1  0.5195590000000  0.4815420000000  0.5077350000000 1.0
C      1  0.5184580000000  0.5077350000000  0.4804410000000 1.0
C      1  0.5184580000000  0.4922650000000  0.5195590000000 1.0
C      1  0.4815420000000  0.4922650000000  0.4804410000000 1.0
C      1  0.5077350000000  0.4804410000000  0.5184580000000 1.0
C      1  0.5077350000000  0.5195590000000  0.4815420000000 1.0
C      1  0.4922650000000  0.5195590000000  0.5184580000000 1.0
C      1  0.5079480000000  0.4493830000000  0.5400880000000 1.0
C      1  0.4493830000000  0.5400880000000  0.5079480000000 1.0
C      1  0.5400880000000  0.5079480000000  0.4493830000000 1.0
C      1  0.4920520000000  0.4493830000000  0.4599120000000 1.0
C      1  0.4920520000000  0.5506170000000  0.5400880000000 1.0
C      1  0.5079480000000  0.5506170000000  0.4599120000000 1.0
C      1  0.5506170000000  0.5400880000000  0.4920520000000 1.0
C      1  0.5506170000000  0.4599120000000  0.5079480000000 1.0
C      1  0.4493830000000  0.4599120000000  0.4920520000000 1.0
C      1  0.4599120000000  0.5079480000000  0.5506170000000 1.0
C      1  0.4599120000000  0.4920520000000  0.4493830000000 1.0
C      1  0.5400880000000  0.4920520000000  0.5506170000000 1.0
C      1  0.5079480000000  0.5506170000000  0.5400880000000 1.0
C      1  0.4493830000000  0.4599120000000  0.5079480000000 1.0
C      1  0.5400880000000  0.4920520000000  0.4493830000000 1.0
C      1  0.4920520000000  0.5506170000000  0.4599120000000 1.0
C      1  0.4920520000000  0.4493830000000  0.5400880000000 1.0
C      1  0.5079480000000  0.4493830000000  0.4599120000000 1.0
C      1  0.5506170000000  0.4599120000000  0.4920520000000 1.0
C      1  0.5506170000000  0.5400880000000  0.5079480000000 1.0
C      1  0.4493830000000  0.5400880000000  0.4920520000000 1.0
C      1  0.4599120000000  0.4920520000000  0.5506170000000 1.0
C      1  0.4599120000000  0.5079480000000  0.4493830000000 1.0
C      1  0.5400880000000  0.5079480000000  0.5506170000000 1.0
C      1  0.4577410000000  0.5075030000000  0.4730050000000 1.0
C      1  0.5075030000000  0.4730050000000  0.4577410000000 1.0
C      1  0.4730050000000  0.4577410000000  0.5075030000000 1.0
C      1  0.5422590000000  0.5075030000000  0.5269950000000 1.0
C      1  0.5422590000000  0.4924970000000  0.4730050000000 1.0
C      1  0.4577410000000  0.4924970000000  0.5269950000000 1.0
C      1  0.4924970000000  0.4730050000000  0.5422590000000 1.0
C      1  0.4924970000000  0.5269950000000  0.4577410000000 1.0
C      1  0.5075030000000  0.5269950000000  0.5422590000000 1.0
C      1  0.5269950000000  0.4577410000000  0.4924970000000 1.0
C      1  0.5269950000000  0.5422590000000  0.5075030000000 1.0
C      1  0.4730050000000  0.5422590000000  0.4924970000000 1.0
C      1  0.4577410000000  0.4924970000000  0.4730050000000 1.0
C      1  0.5075030000000  0.5269950000000  0.4577410000000 1.0
C      1  0.4730050000000  0.5422590000000  0.5075030000000 1.0
C      1  0.5422590000000  0.4924970000000  0.5269950000000 1.0
C      1  0.5422590000000  0.5075030000000  0.4730050000000 1.0
C      1  0.4577410000000  0.5075030000000  0.5269950000000 1.0
C      1  0.4924970000000  0.5269950000000  0.5422590000000 1.0
C      1  0.4924970000000  0.4730050000000  0.4577410000000 1.0
C      1  0.5075030000000  0.4730050000000  0.5422590000000 1.0
C      1  0.5269950000000  0.5422590000000  0.4924970000000 1.0
C      1  0.5269950000000  0.4577410000000  0.5075030000000 1.0
C      1  0.4730050000000  0.4577410000000  0.4924970000000 1.0
C      1  0.4925010000000  0.4383880000000  0.4346110000000 1.0
C      1  0.4383880000000  0.4346110000000  0.4925010000000 1.0
C      1  0.4346110000000  0.4925010000000  0.4383880000000 1.0
C      1  0.5074990000000  0.4383880000000  0.5653890000000 1.0
C      1  0.5074990000000  0.5616120000000  0.4346110000000 1.0
C      1  0.4925010000000  0.5616120000000  0.5653890000000 1.0
C      1  0.5616120000000  0.4346110000000  0.5074990000000 1.0
C      1  0.5616120000000  0.5653890000000  0.4925010000000 1.0
C      1  0.4383880000000  0.5653890000000  0.5074990000000 1.0
C      1  0.5653890000000  0.4925010000000  0.5616120000000 1.0
C      1  0.5653890000000  0.5074990000000  0.4383880000000 1.0
C      1  0.4346110000000  0.5074990000000  0.5616120000000 1.0
C      1  0.4925010000000  0.5616120000000  0.4346110000000 1.0
C      1  0.4383880000000  0.5653890000000  0.4925010000000 1.0
C      1  0.4346110000000  0.5074990000000  0.4383880000000 1.0
C      1  0.5074990000000  0.5616120000000  0.5653890000000 1.0
C      1  0.5074990000000  0.4383880000000  0.4346110000000 1.0
C      1  0.4925010000000  0.4383880000000  0.5653890000000 1.0
C      1  0.5616120000000  0.5653890000000  0.5074990000000 1.0
C      1  0.5616120000000  0.4346110000000  0.4925010000000 1.0
C      1  0.4383880000000  0.4346110000000  0.5074990000000 1.0
C      1  0.5653890000000  0.5074990000000  0.5616120000000 1.0
C      1  0.5653890000000  0.4925010000000  0.4383880000000 1.0
C      1  0.4346110000000  0.4925010000000  0.5616120000000 1.0
C      1  0.5384430000000  0.4325220000000  0.5328830000000 1.0
C      1  0.4325220000000  0.5328830000000  0.5384430000000 1.0
C      1  0.5328830000000  0.5384430000000  0.4325220000000 1.0
C      1  0.4615570000000  0.4325220000000  0.4671170000000 1.0
C      1  0.4615570000000  0.5674780000000  0.5328830000000 1.0
C      1  0.5384430000000  0.5674780000000  0.4671170000000 1.0
C      1  0.5674780000000  0.5328830000000  0.4615570000000 1.0
C      1  0.5674780000000  0.4671170000000  0.5384430000000 1.0
C      1  0.4325220000000  0.4671170000000  0.4615570000000 1.0
C      1  0.4671170000000  0.5384430000000  0.5674780000000 1.0
C      1  0.4671170000000  0.4615570000000  0.4325220000000 1.0
C      1  0.5328830000000  0.4615570000000  0.5674780000000 1.0
C      1  0.5384430000000  0.5674780000000  0.5328830000000 1.0
C      1  0.4325220000000  0.4671170000000  0.5384430000000 1.0
C      1  0.5328830000000  0.4615570000000  0.4325220000000 1.0
C      1  0.4615570000000  0.5674780000000  0.4671170000000 1.0
C      1  0.4615570000000  0.4325220000000  0.5328830000000 1.0
C      1  0.5384430000000  0.4325220000000  0.4671170000000 1.0
C      1  0.5674780000000  0.4671170000000  0.4615570000000 1.0
C      1  0.5674780000000  0.5328830000000  0.5384430000000 1.0
C      1  0.4325220000000  0.5328830000000  0.4615570000000 1.0
C      1  0.4671170000000  0.4615570000000  0.5674780000000 1.0
C      1  0.4671170000000  0.5384430000000  0.4325220000000 1.0
C      1  0.5328830000000  0.5384430000000  0.5674780000000 1.0
C      1  0.4712150000000  0.5675380000000  0.4590940000000 1.0
C      1  0.5675380000000  0.4590940000000  0.4712150000000 1.0
C      1  0.4590940000000  0.4712150000000  0.5675380000000 1.0
C      1  0.5287850000000  0.5675380000000  0.5409060000000 1.0
C      1  0.5287850000000  0.4324620000000  0.4590940000000 1.0
C      1  0.4712150000000  0.4324620000000  0.5409060000000 1.0
C      1  0.4324620000000  0.4590940000000  0.5287850000000 1.0
C      1  0.4324620000000  0.5409060000000  0.4712150000000 1.0
C      1  0.5675380000000  0.5409060000000  0.5287850000000 1.0
C      1  0.5409060000000  0.4712150000000  0.4324620000000 1.0
C      1  0.5409060000000  0.5287850000000  0.5675380000000 1.0
C      1  0.4590940000000  0.5287850000000  0.4324620000000 1.0
C      1  0.4712150000000  0.4324620000000  0.4590940000000 1.0
C      1  0.5675380000000  0.5409060000000  0.4712150000000 1.0
C      1  0.4590940000000  0.5287850000000  0.5675380000000 1.0
C      1  0.5287850000000  0.4324620000000  0.5409060000000 1.0
C      1  0.5287850000000  0.5675380000000  0.4590940000000 1.0
C      1  0.4712150000000  0.5675380000000  0.5409060000000 1.0
C      1  0.4324620000000  0.5409060000000  0.5287850000000 1.0
C      1  0.4324620000000  0.4590940000000  0.4712150000000 1.0
C      1  0.5675380000000  0.4590940000000  0.5287850000000 1.0
C      1  0.5409060000000  0.5287850000000  0.4324620000000 1.0
C      1  0.5409060000000  0.4712150000000  0.5675380000000 1.0
C      1  0.4590940000000  0.4712150000000  0.4324620000000 1.0
END
