TITL C-1892072-9074-84 2.85563345811967e-06 1000000 -3833.67381208652 0 0 540 (Td) n - 1
REM
REM in /nfs/bkarasulu/CARBON/AIRSS/Generating-Clusters/GAP-ML-2020/Higher-Symm/Selected-Sizes/TryA-Only_Ih-Symm/Larger-Clusters
REM
REM
REM
REM
REM
REM ./C.cell (2cf5181f0f1d4d5b12b972d32ad12063)
REM
REM compiler GCC version 9.2.1 20190827 (Red Hat 9.2.1-1)
REM options -cpp -mtune=generic -march=x86-64 -g -O0 -fpre-include=/usr/include/finclude/math-vector-fortran.h
REM seed -1941894477 2066432809 793102301 -638595543 -122356774 -1597176501 2098434005 -2039916963 -893002020 -1079652560 -1022350091 -1747590298 90794787 1607754575 -66921184 201434396 783229820 -316181844 1667761403 -1482488296 1310173657 2039584403 -1877268230 -1219310760 -1469519991 811050686 -758204296 1852024317 -1083617843 -1374753591 1267359800 -998298231 1841572549
REM
CELL 1.54180  100.00000  100.00000  100.00000   90.00000   90.00000   90.00000
LATT -1
SFAC C  
C      1  0.4810360000000  0.5517020000000  0.4290620000000 1.0
C      1  0.5517020000000  0.4290620000000  0.4810360000000 1.0
C      1  0.4290620000000  0.4810360000000  0.5517020000000 1.0
C      1  0.5189640000000  0.4482980000000  0.4290620000000 1.0
C      1  0.4810360000000  0.4482980000000  0.5709380000000 1.0
C      1  0.5189640000000  0.5517020000000  0.5709380000000 1.0
C      1  0.4482980000000  0.5709380000000  0.4810360000000 1.0
C      1  0.5517020000000  0.5709380000000  0.5189640000000 1.0
C      1  0.4482980000000  0.4290620000000  0.5189640000000 1.0
C      1  0.5709380000000  0.5189640000000  0.5517020000000 1.0
C      1  0.4290620000000  0.5189640000000  0.4482980000000 1.0
C      1  0.5709380000000  0.4810360000000  0.4482980000000 1.0
C      1  0.5517020000000  0.4810360000000  0.4290620000000 1.0
C      1  0.4290620000000  0.5517020000000  0.4810360000000 1.0
C      1  0.4810360000000  0.4290620000000  0.5517020000000 1.0
C      1  0.4482980000000  0.5189640000000  0.4290620000000 1.0
C      1  0.4482980000000  0.4810360000000  0.5709380000000 1.0
C      1  0.5517020000000  0.5189640000000  0.5709380000000 1.0
C      1  0.5709380000000  0.4482980000000  0.4810360000000 1.0
C      1  0.5709380000000  0.5517020000000  0.5189640000000 1.0
C      1  0.4290620000000  0.4482980000000  0.5189640000000 1.0
C      1  0.5189640000000  0.5709380000000  0.5517020000000 1.0
C      1  0.5189640000000  0.4290620000000  0.4482980000000 1.0
C      1  0.4810360000000  0.5709380000000  0.4482980000000 1.0
C      1  0.4577360000000  0.4799090000000  0.5008840000000 1.0
C      1  0.4799090000000  0.5008840000000  0.4577360000000 1.0
C      1  0.5008840000000  0.4577360000000  0.4799090000000 1.0
C      1  0.5422640000000  0.5200910000000  0.5008840000000 1.0
C      1  0.4577360000000  0.5200910000000  0.4991160000000 1.0
C      1  0.5422640000000  0.4799090000000  0.4991160000000 1.0
C      1  0.5200910000000  0.4991160000000  0.4577360000000 1.0
C      1  0.4799090000000  0.4991160000000  0.5422640000000 1.0
C      1  0.5200910000000  0.5008840000000  0.5422640000000 1.0
C      1  0.4991160000000  0.5422640000000  0.4799090000000 1.0
C      1  0.5008840000000  0.5422640000000  0.5200910000000 1.0
C      1  0.4991160000000  0.4577360000000  0.5200910000000 1.0
C      1  0.4799090000000  0.4577360000000  0.5008840000000 1.0
C      1  0.5008840000000  0.4799090000000  0.4577360000000 1.0
C      1  0.4577360000000  0.5008840000000  0.4799090000000 1.0
C      1  0.5200910000000  0.5422640000000  0.5008840000000 1.0
C      1  0.5200910000000  0.4577360000000  0.4991160000000 1.0
C      1  0.4799090000000  0.5422640000000  0.4991160000000 1.0
C      1  0.4991160000000  0.5200910000000  0.4577360000000 1.0
C      1  0.4991160000000  0.4799090000000  0.5422640000000 1.0
C      1  0.5008840000000  0.5200910000000  0.5422640000000 1.0
C      1  0.5422640000000  0.4991160000000  0.4799090000000 1.0
C      1  0.5422640000000  0.5008840000000  0.5200910000000 1.0
C      1  0.4577360000000  0.4991160000000  0.5200910000000 1.0
C      1  0.5046890000000  0.5648820000000  0.4843140000000 1.0
C      1  0.5648820000000  0.4843140000000  0.5046890000000 1.0
C      1  0.4843140000000  0.5046890000000  0.5648820000000 1.0
C      1  0.4953110000000  0.4351180000000  0.4843140000000 1.0
C      1  0.5046890000000  0.4351180000000  0.5156860000000 1.0
C      1  0.4953110000000  0.5648820000000  0.5156860000000 1.0
C      1  0.4351180000000  0.5156860000000  0.5046890000000 1.0
C      1  0.5648820000000  0.5156860000000  0.4953110000000 1.0
C      1  0.4351180000000  0.4843140000000  0.4953110000000 1.0
C      1  0.5156860000000  0.4953110000000  0.5648820000000 1.0
C      1  0.4843140000000  0.4953110000000  0.4351180000000 1.0
C      1  0.5156860000000  0.5046890000000  0.4351180000000 1.0
C      1  0.5648820000000  0.5046890000000  0.4843140000000 1.0
C      1  0.4843140000000  0.5648820000000  0.5046890000000 1.0
C      1  0.5046890000000  0.4843140000000  0.5648820000000 1.0
C      1  0.4351180000000  0.4953110000000  0.4843140000000 1.0
C      1  0.4351180000000  0.5046890000000  0.5156860000000 1.0
C      1  0.5648820000000  0.4953110000000  0.5156860000000 1.0
C      1  0.5156860000000  0.4351180000000  0.5046890000000 1.0
C      1  0.5156860000000  0.5648820000000  0.4953110000000 1.0
C      1  0.4843140000000  0.4351180000000  0.4953110000000 1.0
C      1  0.4953110000000  0.5156860000000  0.5648820000000 1.0
C      1  0.4953110000000  0.4843140000000  0.4351180000000 1.0
C      1  0.5046890000000  0.5156860000000  0.4351180000000 1.0
C      1  0.5110980000000  0.5792070000000  0.5001540000000 1.0
C      1  0.5792070000000  0.5001540000000  0.5110980000000 1.0
C      1  0.5001540000000  0.5110980000000  0.5792070000000 1.0
C      1  0.4889020000000  0.4207930000000  0.5001540000000 1.0
C      1  0.5110980000000  0.4207930000000  0.4998460000000 1.0
C      1  0.4889020000000  0.5792070000000  0.4998460000000 1.0
C      1  0.4207930000000  0.4998460000000  0.5110980000000 1.0
C      1  0.5792070000000  0.4998460000000  0.4889020000000 1.0
C      1  0.4207930000000  0.5001540000000  0.4889020000000 1.0
C      1  0.4998460000000  0.4889020000000  0.5792070000000 1.0
C      1  0.5001540000000  0.4889020000000  0.4207930000000 1.0
C      1  0.4998460000000  0.5110980000000  0.4207930000000 1.0
C      1  0.5792070000000  0.5110980000000  0.5001540000000 1.0
C      1  0.5001540000000  0.5792070000000  0.5110980000000 1.0
C      1  0.5110980000000  0.5001540000000  0.5792070000000 1.0
C      1  0.4207930000000  0.4889020000000  0.5001540000000 1.0
C      1  0.4207930000000  0.5110980000000  0.4998460000000 1.0
C      1  0.5792070000000  0.4889020000000  0.4998460000000 1.0
C      1  0.4998460000000  0.4207930000000  0.5110980000000 1.0
C      1  0.4998460000000  0.5792070000000  0.4889020000000 1.0
C      1  0.5001540000000  0.4207930000000  0.4889020000000 1.0
C      1  0.4889020000000  0.4998460000000  0.5792070000000 1.0
C      1  0.4889020000000  0.5001540000000  0.4207930000000 1.0
C      1  0.5110980000000  0.4998460000000  0.4207930000000 1.0
C      1  0.5715980000000  0.5056930000000  0.4493350000000 1.0
C      1  0.5056930000000  0.4493350000000  0.5715980000000 1.0
C      1  0.4493350000000  0.5715980000000  0.5056930000000 1.0
C      1  0.4284020000000  0.4943070000000  0.4493350000000 1.0
C      1  0.5715980000000  0.4943070000000  0.5506650000000 1.0
C      1  0.4284020000000  0.5056930000000  0.5506650000000 1.0
C      1  0.4943070000000  0.5506650000000  0.5715980000000 1.0
C      1  0.5056930000000  0.5506650000000  0.4284020000000 1.0
C      1  0.4943070000000  0.4493350000000  0.4284020000000 1.0
C      1  0.5506650000000  0.4284020000000  0.5056930000000 1.0
C      1  0.4493350000000  0.4284020000000  0.4943070000000 1.0
C      1  0.5506650000000  0.5715980000000  0.4943070000000 1.0
C      1  0.5056930000000  0.5715980000000  0.4493350000000 1.0
C      1  0.4493350000000  0.5056930000000  0.5715980000000 1.0
C      1  0.5715980000000  0.4493350000000  0.5056930000000 1.0
C      1  0.4943070000000  0.4284020000000  0.4493350000000 1.0
C      1  0.4943070000000  0.5715980000000  0.5506650000000 1.0
C      1  0.5056930000000  0.4284020000000  0.5506650000000 1.0
C      1  0.5506650000000  0.4943070000000  0.5715980000000 1.0
C      1  0.5506650000000  0.5056930000000  0.4284020000000 1.0
C      1  0.4493350000000  0.4943070000000  0.4284020000000 1.0
C      1  0.4284020000000  0.5506650000000  0.5056930000000 1.0
C      1  0.4284020000000  0.4493350000000  0.4943070000000 1.0
C      1  0.5715980000000  0.5506650000000  0.4943070000000 1.0
C      1  0.5256230000000  0.5830120000000  0.5037840000000 1.0
C      1  0.5830120000000  0.5037840000000  0.5256230000000 1.0
C      1  0.5037840000000  0.5256230000000  0.5830120000000 1.0
C      1  0.4743770000000  0.4169880000000  0.5037840000000 1.0
C      1  0.5256230000000  0.4169880000000  0.4962160000000 1.0
C      1  0.4743770000000  0.5830120000000  0.4962160000000 1.0
C      1  0.4169880000000  0.4962160000000  0.5256230000000 1.0
C      1  0.5830120000000  0.4962160000000  0.4743770000000 1.0
C      1  0.4169880000000  0.5037840000000  0.4743770000000 1.0
C      1  0.4962160000000  0.4743770000000  0.5830120000000 1.0
C      1  0.5037840000000  0.4743770000000  0.4169880000000 1.0
C      1  0.4962160000000  0.5256230000000  0.4169880000000 1.0
C      1  0.5830120000000  0.5256230000000  0.5037840000000 1.0
C      1  0.5037840000000  0.5830120000000  0.5256230000000 1.0
C      1  0.5256230000000  0.5037840000000  0.5830120000000 1.0
C      1  0.4169880000000  0.4743770000000  0.5037840000000 1.0
C      1  0.4169880000000  0.5256230000000  0.4962160000000 1.0
C      1  0.5830120000000  0.4743770000000  0.4962160000000 1.0
C      1  0.4962160000000  0.4169880000000  0.5256230000000 1.0
C      1  0.4962160000000  0.5830120000000  0.4743770000000 1.0
C      1  0.5037840000000  0.4169880000000  0.4743770000000 1.0
C      1  0.4743770000000  0.4962160000000  0.5830120000000 1.0
C      1  0.4743770000000  0.5037840000000  0.4169880000000 1.0
C      1  0.5256230000000  0.4962160000000  0.4169880000000 1.0
C      1  0.5173830000000  0.4546370000000  0.5358850000000 1.0
C      1  0.4546370000000  0.5358850000000  0.5173830000000 1.0
C      1  0.5358850000000  0.5173830000000  0.4546370000000 1.0
C      1  0.4826170000000  0.5453630000000  0.5358850000000 1.0
C      1  0.5173830000000  0.5453630000000  0.4641150000000 1.0
C      1  0.4826170000000  0.4546370000000  0.4641150000000 1.0
C      1  0.5453630000000  0.4641150000000  0.5173830000000 1.0
C      1  0.4546370000000  0.4641150000000  0.4826170000000 1.0
C      1  0.5453630000000  0.5358850000000  0.4826170000000 1.0
C      1  0.4641150000000  0.4826170000000  0.4546370000000 1.0
C      1  0.5358850000000  0.4826170000000  0.5453630000000 1.0
C      1  0.4641150000000  0.5173830000000  0.5453630000000 1.0
C      1  0.4546370000000  0.5173830000000  0.5358850000000 1.0
C      1  0.5358850000000  0.4546370000000  0.5173830000000 1.0
C      1  0.5173830000000  0.5358850000000  0.4546370000000 1.0
C      1  0.5453630000000  0.4826170000000  0.5358850000000 1.0
C      1  0.5453630000000  0.5173830000000  0.4641150000000 1.0
C      1  0.4546370000000  0.4826170000000  0.4641150000000 1.0
C      1  0.4641150000000  0.5453630000000  0.5173830000000 1.0
C      1  0.4641150000000  0.4546370000000  0.4826170000000 1.0
C      1  0.5358850000000  0.5453630000000  0.4826170000000 1.0
C      1  0.4826170000000  0.4641150000000  0.4546370000000 1.0
C      1  0.4826170000000  0.5358850000000  0.5453630000000 1.0
C      1  0.5173830000000  0.4641150000000  0.5453630000000 1.0
C      1  0.5174340000000  0.4192420000000  0.4726030000000 1.0
C      1  0.4192420000000  0.4726030000000  0.5174340000000 1.0
C      1  0.4726030000000  0.5174340000000  0.4192420000000 1.0
C      1  0.4825660000000  0.5807580000000  0.4726030000000 1.0
C      1  0.5174340000000  0.5807580000000  0.5273970000000 1.0
C      1  0.4825660000000  0.4192420000000  0.5273970000000 1.0
C      1  0.5807580000000  0.5273970000000  0.5174340000000 1.0
C      1  0.4192420000000  0.5273970000000  0.4825660000000 1.0
C      1  0.5807580000000  0.4726030000000  0.4825660000000 1.0
C      1  0.5273970000000  0.4825660000000  0.4192420000000 1.0
C      1  0.4726030000000  0.4825660000000  0.5807580000000 1.0
C      1  0.5273970000000  0.5174340000000  0.5807580000000 1.0
C      1  0.4192420000000  0.5174340000000  0.4726030000000 1.0
C      1  0.4726030000000  0.4192420000000  0.5174340000000 1.0
C      1  0.5174340000000  0.4726030000000  0.4192420000000 1.0
C      1  0.5807580000000  0.4825660000000  0.4726030000000 1.0
C      1  0.5807580000000  0.5174340000000  0.5273970000000 1.0
C      1  0.4192420000000  0.4825660000000  0.5273970000000 1.0
C      1  0.5273970000000  0.5807580000000  0.5174340000000 1.0
C      1  0.5273970000000  0.4192420000000  0.4825660000000 1.0
C      1  0.4726030000000  0.5807580000000  0.4825660000000 1.0
C      1  0.4825660000000  0.5273970000000  0.4192420000000 1.0
C      1  0.4825660000000  0.4726030000000  0.5807580000000 1.0
C      1  0.5174340000000  0.5273970000000  0.5807580000000 1.0
C      1  0.4449210000000  0.4813630000000  0.5075520000000 1.0
C      1  0.4813630000000  0.5075520000000  0.4449210000000 1.0
C      1  0.5075520000000  0.4449210000000  0.4813630000000 1.0
C      1  0.5550790000000  0.5186370000000  0.5075520000000 1.0
C      1  0.4449210000000  0.5186370000000  0.4924480000000 1.0
C      1  0.5550790000000  0.4813630000000  0.4924480000000 1.0
C      1  0.5186370000000  0.4924480000000  0.4449210000000 1.0
C      1  0.4813630000000  0.4924480000000  0.5550790000000 1.0
C      1  0.5186370000000  0.5075520000000  0.5550790000000 1.0
C      1  0.4924480000000  0.5550790000000  0.4813630000000 1.0
C      1  0.5075520000000  0.5550790000000  0.5186370000000 1.0
C      1  0.4924480000000  0.4449210000000  0.5186370000000 1.0
C      1  0.4813630000000  0.4449210000000  0.5075520000000 1.0
C      1  0.5075520000000  0.4813630000000  0.4449210000000 1.0
C      1  0.4449210000000  0.5075520000000  0.4813630000000 1.0
C      1  0.5186370000000  0.5550790000000  0.5075520000000 1.0
C      1  0.5186370000000  0.4449210000000  0.4924480000000 1.0
C      1  0.4813630000000  0.5550790000000  0.4924480000000 1.0
C      1  0.4924480000000  0.5186370000000  0.4449210000000 1.0
C      1  0.4924480000000  0.4813630000000  0.5550790000000 1.0
C      1  0.5075520000000  0.5186370000000  0.5550790000000 1.0
C      1  0.5550790000000  0.4924480000000  0.4813630000000 1.0
C      1  0.5550790000000  0.5075520000000  0.5186370000000 1.0
C      1  0.4449210000000  0.4924480000000  0.5186370000000 1.0
C      1  0.4434220000000  0.5155320000000  0.4676520000000 1.0
C      1  0.5155320000000  0.4676520000000  0.4434220000000 1.0
C      1  0.4676520000000  0.4434220000000  0.5155320000000 1.0
C      1  0.5565780000000  0.4844680000000  0.4676520000000 1.0
C      1  0.4434220000000  0.4844680000000  0.5323480000000 1.0
C      1  0.5565780000000  0.5155320000000  0.5323480000000 1.0
C      1  0.4844680000000  0.5323480000000  0.4434220000000 1.0
C      1  0.5155320000000  0.5323480000000  0.5565780000000 1.0
C      1  0.4844680000000  0.4676520000000  0.5565780000000 1.0
C      1  0.5323480000000  0.5565780000000  0.5155320000000 1.0
C      1  0.4676520000000  0.5565780000000  0.4844680000000 1.0
C      1  0.5323480000000  0.4434220000000  0.4844680000000 1.0
C      1  0.5155320000000  0.4434220000000  0.4676520000000 1.0
C      1  0.4676520000000  0.5155320000000  0.4434220000000 1.0
C      1  0.4434220000000  0.4676520000000  0.5155320000000 1.0
C      1  0.4844680000000  0.5565780000000  0.4676520000000 1.0
C      1  0.4844680000000  0.4434220000000  0.5323480000000 1.0
C      1  0.5155320000000  0.5565780000000  0.5323480000000 1.0
C      1  0.5323480000000  0.4844680000000  0.4434220000000 1.0
C      1  0.5323480000000  0.5155320000000  0.5565780000000 1.0
C      1  0.4676520000000  0.4844680000000  0.5565780000000 1.0
C      1  0.5565780000000  0.5323480000000  0.5155320000000 1.0
C      1  0.5565780000000  0.4676520000000  0.4844680000000 1.0
C      1  0.4434220000000  0.5323480000000  0.4844680000000 1.0
C      1  0.4341610000000  0.4545650000000  0.4712130000000 1.0
C      1  0.4545650000000  0.4712130000000  0.4341610000000 1.0
C      1  0.4712130000000  0.4341610000000  0.4545650000000 1.0
C      1  0.5658390000000  0.5454350000000  0.4712130000000 1.0
C      1  0.4341610000000  0.5454350000000  0.5287870000000 1.0
C      1  0.5658390000000  0.4545650000000  0.5287870000000 1.0
C      1  0.5454350000000  0.5287870000000  0.4341610000000 1.0
C      1  0.4545650000000  0.5287870000000  0.5658390000000 1.0
C      1  0.5454350000000  0.4712130000000  0.5658390000000 1.0
C      1  0.5287870000000  0.5658390000000  0.4545650000000 1.0
C      1  0.4712130000000  0.5658390000000  0.5454350000000 1.0
C      1  0.5287870000000  0.4341610000000  0.5454350000000 1.0
C      1  0.4545650000000  0.4341610000000  0.4712130000000 1.0
C      1  0.4712130000000  0.4545650000000  0.4341610000000 1.0
C      1  0.4341610000000  0.4712130000000  0.4545650000000 1.0
C      1  0.5454350000000  0.5658390000000  0.4712130000000 1.0
C      1  0.5454350000000  0.4341610000000  0.5287870000000 1.0
C      1  0.4545650000000  0.5658390000000  0.5287870000000 1.0
C      1  0.5287870000000  0.5454350000000  0.4341610000000 1.0
C      1  0.5287870000000  0.4545650000000  0.5658390000000 1.0
C      1  0.4712130000000  0.5454350000000  0.5658390000000 1.0
C      1  0.5658390000000  0.5287870000000  0.4545650000000 1.0
C      1  0.5658390000000  0.4712130000000  0.5454350000000 1.0
C      1  0.4341610000000  0.5287870000000  0.5454350000000 1.0
C      1  0.5592770000000  0.4665050000000  0.5225400000000 1.0
C      1  0.4665050000000  0.5225400000000  0.5592770000000 1.0
C      1  0.5225400000000  0.5592770000000  0.4665050000000 1.0
C      1  0.4407230000000  0.5334950000000  0.5225400000000 1.0
C      1  0.5592770000000  0.5334950000000  0.4774600000000 1.0
C      1  0.4407230000000  0.4665050000000  0.4774600000000 1.0
C      1  0.5334950000000  0.4774600000000  0.5592770000000 1.0
C      1  0.4665050000000  0.4774600000000  0.4407230000000 1.0
C      1  0.5334950000000  0.5225400000000  0.4407230000000 1.0
C      1  0.4774600000000  0.4407230000000  0.4665050000000 1.0
C      1  0.5225400000000  0.4407230000000  0.5334950000000 1.0
C      1  0.4774600000000  0.5592770000000  0.5334950000000 1.0
C      1  0.4665050000000  0.5592770000000  0.5225400000000 1.0
C      1  0.5225400000000  0.4665050000000  0.5592770000000 1.0
C      1  0.5592770000000  0.5225400000000  0.4665050000000 1.0
C      1  0.5334950000000  0.4407230000000  0.5225400000000 1.0
C      1  0.5334950000000  0.5592770000000  0.4774600000000 1.0
C      1  0.4665050000000  0.4407230000000  0.4774600000000 1.0
C      1  0.4774600000000  0.5334950000000  0.5592770000000 1.0
C      1  0.4774600000000  0.4665050000000  0.4407230000000 1.0
C      1  0.5225400000000  0.5334950000000  0.4407230000000 1.0
C      1  0.4407230000000  0.4774600000000  0.4665050000000 1.0
C      1  0.4407230000000  0.5225400000000  0.5334950000000 1.0
C      1  0.5592770000000  0.4774600000000  0.5334950000000 1.0
C      1  0.4916640000000  0.5302340000000  0.4807630000000 1.0
C      1  0.5302340000000  0.4807630000000  0.4916640000000 1.0
C      1  0.4807630000000  0.4916640000000  0.5302340000000 1.0
C      1  0.5083360000000  0.4697660000000  0.4807630000000 1.0
C      1  0.4916640000000  0.4697660000000  0.5192370000000 1.0
C      1  0.5083360000000  0.5302340000000  0.5192370000000 1.0
C      1  0.4697660000000  0.5192370000000  0.4916640000000 1.0
C      1  0.5302340000000  0.5192370000000  0.5083360000000 1.0
C      1  0.4697660000000  0.4807630000000  0.5083360000000 1.0
C      1  0.5192370000000  0.5083360000000  0.5302340000000 1.0
C      1  0.4807630000000  0.5083360000000  0.4697660000000 1.0
C      1  0.5192370000000  0.4916640000000  0.4697660000000 1.0
C      1  0.5302340000000  0.4916640000000  0.4807630000000 1.0
C      1  0.4807630000000  0.5302340000000  0.4916640000000 1.0
C      1  0.4916640000000  0.4807630000000  0.5302340000000 1.0
C      1  0.4697660000000  0.5083360000000  0.4807630000000 1.0
C      1  0.4697660000000  0.4916640000000  0.5192370000000 1.0
C      1  0.5302340000000  0.5083360000000  0.5192370000000 1.0
C      1  0.5192370000000  0.4697660000000  0.4916640000000 1.0
C      1  0.5192370000000  0.5302340000000  0.5083360000000 1.0
C      1  0.4807630000000  0.4697660000000  0.5083360000000 1.0
C      1  0.5083360000000  0.5192370000000  0.5302340000000 1.0
C      1  0.5083360000000  0.4807630000000  0.4697660000000 1.0
C      1  0.4916640000000  0.5192370000000  0.4697660000000 1.0
C      1  0.5060580000000  0.5583040000000  0.5684780000000 1.0
C      1  0.5583040000000  0.5684780000000  0.5060580000000 1.0
C      1  0.5684780000000  0.5060580000000  0.5583040000000 1.0
C      1  0.4939420000000  0.4416960000000  0.5684780000000 1.0
C      1  0.5060580000000  0.4416960000000  0.4315220000000 1.0
C      1  0.4939420000000  0.5583040000000  0.4315220000000 1.0
C      1  0.4416960000000  0.4315220000000  0.5060580000000 1.0
C      1  0.5583040000000  0.4315220000000  0.4939420000000 1.0
C      1  0.4416960000000  0.5684780000000  0.4939420000000 1.0
C      1  0.4315220000000  0.4939420000000  0.5583040000000 1.0
C      1  0.5684780000000  0.4939420000000  0.4416960000000 1.0
C      1  0.4315220000000  0.5060580000000  0.4416960000000 1.0
C      1  0.5583040000000  0.5060580000000  0.5684780000000 1.0
C      1  0.5684780000000  0.5583040000000  0.5060580000000 1.0
C      1  0.5060580000000  0.5684780000000  0.5583040000000 1.0
C      1  0.4416960000000  0.4939420000000  0.5684780000000 1.0
C      1  0.4416960000000  0.5060580000000  0.4315220000000 1.0
C      1  0.5583040000000  0.4939420000000  0.4315220000000 1.0
C      1  0.4315220000000  0.4416960000000  0.5060580000000 1.0
C      1  0.4315220000000  0.5583040000000  0.4939420000000 1.0
C      1  0.5684780000000  0.4416960000000  0.4939420000000 1.0
C      1  0.4939420000000  0.4315220000000  0.5583040000000 1.0
C      1  0.4939420000000  0.5684780000000  0.4416960000000 1.0
C      1  0.5060580000000  0.4315220000000  0.4416960000000 1.0
C      1  0.4323780000000  0.5284140000000  0.5116530000000 1.0
C      1  0.5284140000000  0.5116530000000  0.4323780000000 1.0
C      1  0.5116530000000  0.4323780000000  0.5284140000000 1.0
C      1  0.5676220000000  0.4715860000000  0.5116530000000 1.0
C      1  0.4323780000000  0.4715860000000  0.4883470000000 1.0
C      1  0.5676220000000  0.5284140000000  0.4883470000000 1.0
C      1  0.4715860000000  0.4883470000000  0.4323780000000 1.0
C      1  0.5284140000000  0.4883470000000  0.5676220000000 1.0
C      1  0.4715860000000  0.5116530000000  0.5676220000000 1.0
C      1  0.4883470000000  0.5676220000000  0.5284140000000 1.0
C      1  0.5116530000000  0.5676220000000  0.4715860000000 1.0
C      1  0.4883470000000  0.4323780000000  0.4715860000000 1.0
C      1  0.5284140000000  0.4323780000000  0.5116530000000 1.0
C      1  0.5116530000000  0.5284140000000  0.4323780000000 1.0
C      1  0.4323780000000  0.5116530000000  0.5284140000000 1.0
C      1  0.4715860000000  0.5676220000000  0.5116530000000 1.0
C      1  0.4715860000000  0.4323780000000  0.4883470000000 1.0
C      1  0.5284140000000  0.5676220000000  0.4883470000000 1.0
C      1  0.4883470000000  0.4715860000000  0.4323780000000 1.0
C      1  0.4883470000000  0.5284140000000  0.5676220000000 1.0
C      1  0.5116530000000  0.4715860000000  0.5676220000000 1.0
C      1  0.5676220000000  0.4883470000000  0.5284140000000 1.0
C      1  0.5676220000000  0.5116530000000  0.4715860000000 1.0
C      1  0.4323780000000  0.4883470000000  0.4715860000000 1.0
C      1  0.4997480000000  0.5204450000000  0.5104700000000 1.0
C      1  0.5204450000000  0.5104700000000  0.4997480000000 1.0
C      1  0.5104700000000  0.4997480000000  0.5204450000000 1.0
C      1  0.5002520000000  0.4795550000000  0.5104700000000 1.0
C      1  0.4997480000000  0.4795550000000  0.4895300000000 1.0
C      1  0.5002520000000  0.5204450000000  0.4895300000000 1.0
C      1  0.4795550000000  0.4895300000000  0.4997480000000 1.0
C      1  0.5204450000000  0.4895300000000  0.5002520000000 1.0
C      1  0.4795550000000  0.5104700000000  0.5002520000000 1.0
C      1  0.4895300000000  0.5002520000000  0.5204450000000 1.0
C      1  0.5104700000000  0.5002520000000  0.4795550000000 1.0
C      1  0.4895300000000  0.4997480000000  0.4795550000000 1.0
C      1  0.5204450000000  0.4997480000000  0.5104700000000 1.0
C      1  0.5104700000000  0.5204450000000  0.4997480000000 1.0
C      1  0.4997480000000  0.5104700000000  0.5204450000000 1.0
C      1  0.4795550000000  0.5002520000000  0.5104700000000 1.0
C      1  0.4795550000000  0.4997480000000  0.4895300000000 1.0
C      1  0.5204450000000  0.5002520000000  0.4895300000000 1.0
C      1  0.4895300000000  0.4795550000000  0.4997480000000 1.0
C      1  0.4895300000000  0.5204450000000  0.5002520000000 1.0
C      1  0.5104700000000  0.4795550000000  0.5002520000000 1.0
C      1  0.5002520000000  0.4895300000000  0.5204450000000 1.0
C      1  0.5002520000000  0.5104700000000  0.4795550000000 1.0
C      1  0.4997480000000  0.4895300000000  0.4795550000000 1.0
C      1  0.5700630000000  0.4806250000000  0.4625070000000 1.0
C      1  0.4806250000000  0.4625070000000  0.5700630000000 1.0
C      1  0.4625070000000  0.5700630000000  0.4806250000000 1.0
C      1  0.4299370000000  0.5193750000000  0.4625070000000 1.0
C      1  0.5700630000000  0.5193750000000  0.5374930000000 1.0
C      1  0.4299370000000  0.4806250000000  0.5374930000000 1.0
C      1  0.5193750000000  0.5374930000000  0.5700630000000 1.0
C      1  0.4806250000000  0.5374930000000  0.4299370000000 1.0
C      1  0.5193750000000  0.4625070000000  0.4299370000000 1.0
C      1  0.5374930000000  0.4299370000000  0.4806250000000 1.0
C      1  0.4625070000000  0.4299370000000  0.5193750000000 1.0
C      1  0.5374930000000  0.5700630000000  0.5193750000000 1.0
C      1  0.4806250000000  0.5700630000000  0.4625070000000 1.0
C      1  0.4625070000000  0.4806250000000  0.5700630000000 1.0
C      1  0.5700630000000  0.4625070000000  0.4806250000000 1.0
C      1  0.5193750000000  0.4299370000000  0.4625070000000 1.0
C      1  0.5193750000000  0.5700630000000  0.5374930000000 1.0
C      1  0.4806250000000  0.4299370000000  0.5374930000000 1.0
C      1  0.5374930000000  0.5193750000000  0.5700630000000 1.0
C      1  0.5374930000000  0.4806250000000  0.4299370000000 1.0
C      1  0.4625070000000  0.5193750000000  0.4299370000000 1.0
C      1  0.4299370000000  0.5374930000000  0.4806250000000 1.0
C      1  0.4299370000000  0.4625070000000  0.5193750000000 1.0
C      1  0.5700630000000  0.5374930000000  0.5193750000000 1.0
C      1  0.4646840000000  0.5251540000000  0.4545270000000 1.0
C      1  0.5251540000000  0.4545270000000  0.4646840000000 1.0
C      1  0.4545270000000  0.4646840000000  0.5251540000000 1.0
C      1  0.5353160000000  0.4748460000000  0.4545270000000 1.0
C      1  0.4646840000000  0.4748460000000  0.5454730000000 1.0
C      1  0.5353160000000  0.5251540000000  0.5454730000000 1.0
C      1  0.4748460000000  0.5454730000000  0.4646840000000 1.0
C      1  0.5251540000000  0.5454730000000  0.5353160000000 1.0
C      1  0.4748460000000  0.4545270000000  0.5353160000000 1.0
C      1  0.5454730000000  0.5353160000000  0.5251540000000 1.0
C      1  0.4545270000000  0.5353160000000  0.4748460000000 1.0
C      1  0.5454730000000  0.4646840000000  0.4748460000000 1.0
C      1  0.5251540000000  0.4646840000000  0.4545270000000 1.0
C      1  0.4545270000000  0.5251540000000  0.4646840000000 1.0
C      1  0.4646840000000  0.4545270000000  0.5251540000000 1.0
C      1  0.4748460000000  0.5353160000000  0.4545270000000 1.0
C      1  0.4748460000000  0.4646840000000  0.5454730000000 1.0
C      1  0.5251540000000  0.5353160000000  0.5454730000000 1.0
C      1  0.5454730000000  0.4748460000000  0.4646840000000 1.0
C      1  0.5454730000000  0.5251540000000  0.5353160000000 1.0
C      1  0.4545270000000  0.4748460000000  0.5353160000000 1.0
C      1  0.5353160000000  0.5454730000000  0.5251540000000 1.0
C      1  0.5353160000000  0.4545270000000  0.4748460000000 1.0
C      1  0.4646840000000  0.5454730000000  0.4748460000000 1.0
C      1  0.5556120000000  0.4816950000000  0.5660120000000 1.0
C      1  0.4816950000000  0.5660120000000  0.5556120000000 1.0
C      1  0.5660120000000  0.5556120000000  0.4816950000000 1.0
C      1  0.4443880000000  0.5183050000000  0.5660120000000 1.0
C      1  0.5556120000000  0.5183050000000  0.4339880000000 1.0
C      1  0.4443880000000  0.4816950000000  0.4339880000000 1.0
C      1  0.5183050000000  0.4339880000000  0.5556120000000 1.0
C      1  0.4816950000000  0.4339880000000  0.4443880000000 1.0
C      1  0.5183050000000  0.5660120000000  0.4443880000000 1.0
C      1  0.4339880000000  0.4443880000000  0.4816950000000 1.0
C      1  0.5660120000000  0.4443880000000  0.5183050000000 1.0
C      1  0.4339880000000  0.5556120000000  0.5183050000000 1.0
C      1  0.4816950000000  0.5556120000000  0.5660120000000 1.0
C      1  0.5660120000000  0.4816950000000  0.5556120000000 1.0
C      1  0.5556120000000  0.5660120000000  0.4816950000000 1.0
C      1  0.5183050000000  0.4443880000000  0.5660120000000 1.0
C      1  0.5183050000000  0.5556120000000  0.4339880000000 1.0
C      1  0.4816950000000  0.4443880000000  0.4339880000000 1.0
C      1  0.4339880000000  0.5183050000000  0.5556120000000 1.0
C      1  0.4339880000000  0.4816950000000  0.4443880000000 1.0
C      1  0.5660120000000  0.5183050000000  0.4443880000000 1.0
C      1  0.4443880000000  0.4339880000000  0.4816950000000 1.0
C      1  0.4443880000000  0.5660120000000  0.5183050000000 1.0
C      1  0.5556120000000  0.4339880000000  0.5183050000000 1.0
C      1  0.4953830000000  0.5364410000000  0.5760300000000 1.0
C      1  0.5364410000000  0.5760300000000  0.4953830000000 1.0
C      1  0.5760300000000  0.4953830000000  0.5364410000000 1.0
C      1  0.5046170000000  0.4635590000000  0.5760300000000 1.0
C      1  0.4953830000000  0.4635590000000  0.4239700000000 1.0
C      1  0.5046170000000  0.5364410000000  0.4239700000000 1.0
C      1  0.4635590000000  0.4239700000000  0.4953830000000 1.0
C      1  0.5364410000000  0.4239700000000  0.5046170000000 1.0
C      1  0.4635590000000  0.5760300000000  0.5046170000000 1.0
C      1  0.4239700000000  0.5046170000000  0.5364410000000 1.0
C      1  0.5760300000000  0.5046170000000  0.4635590000000 1.0
C      1  0.4239700000000  0.4953830000000  0.4635590000000 1.0
C      1  0.5364410000000  0.4953830000000  0.5760300000000 1.0
C      1  0.5760300000000  0.5364410000000  0.4953830000000 1.0
C      1  0.4953830000000  0.5760300000000  0.5364410000000 1.0
C      1  0.4635590000000  0.5046170000000  0.5760300000000 1.0
C      1  0.4635590000000  0.4953830000000  0.4239700000000 1.0
C      1  0.5364410000000  0.5046170000000  0.4239700000000 1.0
C      1  0.4239700000000  0.4635590000000  0.4953830000000 1.0
C      1  0.4239700000000  0.5364410000000  0.5046170000000 1.0
C      1  0.5760300000000  0.4635590000000  0.5046170000000 1.0
C      1  0.5046170000000  0.4239700000000  0.5364410000000 1.0
C      1  0.5046170000000  0.5760300000000  0.4635590000000 1.0
C      1  0.4953830000000  0.4239700000000  0.4635590000000 1.0
C      1  0.4410500000000  0.5304100000000  0.4320620000000 1.0
C      1  0.5304100000000  0.4320620000000  0.4410500000000 1.0
C      1  0.4320620000000  0.4410500000000  0.5304100000000 1.0
C      1  0.5589500000000  0.4695900000000  0.4320620000000 1.0
C      1  0.4410500000000  0.4695900000000  0.5679380000000 1.0
C      1  0.5589500000000  0.5304100000000  0.5679380000000 1.0
C      1  0.4695900000000  0.5679380000000  0.4410500000000 1.0
C      1  0.5304100000000  0.5679380000000  0.5589500000000 1.0
C      1  0.4695900000000  0.4320620000000  0.5589500000000 1.0
C      1  0.5679380000000  0.5589500000000  0.5304100000000 1.0
C      1  0.4320620000000  0.5589500000000  0.4695900000000 1.0
C      1  0.5679380000000  0.4410500000000  0.4695900000000 1.0
C      1  0.5304100000000  0.4410500000000  0.4320620000000 1.0
C      1  0.4320620000000  0.5304100000000  0.4410500000000 1.0
C      1  0.4410500000000  0.4320620000000  0.5304100000000 1.0
C      1  0.4695900000000  0.5589500000000  0.4320620000000 1.0
C      1  0.4695900000000  0.4410500000000  0.5679380000000 1.0
C      1  0.5304100000000  0.5589500000000  0.5679380000000 1.0
C      1  0.5679380000000  0.4695900000000  0.4410500000000 1.0
C      1  0.5679380000000  0.5304100000000  0.5589500000000 1.0
C      1  0.4320620000000  0.4695900000000  0.5589500000000 1.0
C      1  0.5589500000000  0.5679380000000  0.5304100000000 1.0
C      1  0.5589500000000  0.4320620000000  0.4695900000000 1.0
C      1  0.4410500000000  0.5679380000000  0.4695900000000 1.0
C      1  0.4771540000000  0.4586880000000  0.4870590000000 1.0
C      1  0.4586880000000  0.4870590000000  0.4771540000000 1.0
C      1  0.4870590000000  0.4771540000000  0.4586880000000 1.0
C      1  0.5228460000000  0.5413120000000  0.4870590000000 1.0
C      1  0.4771540000000  0.5413120000000  0.5129410000000 1.0
C      1  0.5228460000000  0.4586880000000  0.5129410000000 1.0
C      1  0.5413120000000  0.5129410000000  0.4771540000000 1.0
C      1  0.4586880000000  0.5129410000000  0.5228460000000 1.0
C      1  0.5413120000000  0.4870590000000  0.5228460000000 1.0
C      1  0.5129410000000  0.5228460000000  0.4586880000000 1.0
C      1  0.4870590000000  0.5228460000000  0.5413120000000 1.0
C      1  0.5129410000000  0.4771540000000  0.5413120000000 1.0
C      1  0.4586880000000  0.4771540000000  0.4870590000000 1.0
C      1  0.4870590000000  0.4586880000000  0.4771540000000 1.0
C      1  0.4771540000000  0.4870590000000  0.4586880000000 1.0
C      1  0.5413120000000  0.5228460000000  0.4870590000000 1.0
C      1  0.5413120000000  0.4771540000000  0.5129410000000 1.0
C      1  0.4586880000000  0.5228460000000  0.5129410000000 1.0
C      1  0.5129410000000  0.5413120000000  0.4771540000000 1.0
C      1  0.5129410000000  0.4586880000000  0.5228460000000 1.0
C      1  0.4870590000000  0.5413120000000  0.5228460000000 1.0
C      1  0.5228460000000  0.5129410000000  0.4586880000000 1.0
C      1  0.5228460000000  0.4870590000000  0.5413120000000 1.0
C      1  0.4771540000000  0.5129410000000  0.5413120000000 1.0
C      1  0.5419210000000  0.5682010000000  0.4580790000000 1.0
C      1  0.5682010000000  0.4580790000000  0.5419210000000 1.0
C      1  0.4580790000000  0.5419210000000  0.5682010000000 1.0
C      1  0.5419210000000  0.4317990000000  0.5419210000000 1.0
C      1  0.4317990000000  0.5419210000000  0.5419210000000 1.0
C      1  0.5419210000000  0.4580790000000  0.5682010000000 1.0
C      1  0.5419210000000  0.5419210000000  0.4317990000000 1.0
C      1  0.5682010000000  0.5419210000000  0.4580790000000 1.0
C      1  0.4580790000000  0.5682010000000  0.5419210000000 1.0
C      1  0.4580790000000  0.4580790000000  0.4317990000000 1.0
C      1  0.4580790000000  0.4317990000000  0.4580790000000 1.0
C      1  0.4317990000000  0.4580790000000  0.4580790000000 1.0
END
