TITL C-1887017-2780-30 -1.42526221601719e-06 1000000 -2565.73457123154 0 0 360 (Td) n - 1
REM
REM in /nfs/bkarasulu/CARBON/AIRSS/Generating-Clusters/GAP-ML-2020/Higher-Symm/Selected-Sizes/TryA-Only_Ih-Symm/Larger-Clusters
REM
REM
REM
REM
REM
REM ./C.cell (2cf5181f0f1d4d5b12b972d32ad12063)
REM
REM compiler GCC version 9.2.1 20190827 (Red Hat 9.2.1-1)
REM options -cpp -mtune=generic -march=x86-64 -g -O0 -fpre-include=/usr/include/finclude/math-vector-fortran.h
REM seed 43660323 -461695639 -1112709442 -1800829325 -1340298706 1589797459 426897093 1047382506 -1945828741 1369409894 -658278555 1370684048 -358603386 -1046828520 -196979575 403628354 -843464064 -1129765916 -1513126699 -174475644 1516385844 1842005574 766373967 -1468569245 -585052475 -1580965771 1193428972 -823666022 -1406771765 939514564 -443774398 -1373962996 -1127080293
REM
CELL 1.54180  100.00000  100.00000  100.00000   90.00000   90.00000   90.00000
LATT -1
SFAC C  
C      1  0.4823510000000  0.5074150000000  0.5710890000000 1.0
C      1  0.5710890000000  0.4823510000000  0.5074150000000 1.0
C      1  0.5074150000000  0.5710890000000  0.4823510000000 1.0
C      1  0.4823510000000  0.4925850000000  0.4289110000000 1.0
C      1  0.5176490000000  0.4925850000000  0.5710890000000 1.0
C      1  0.5176490000000  0.5074150000000  0.4289110000000 1.0
C      1  0.5710890000000  0.5176490000000  0.4925850000000 1.0
C      1  0.4289110000000  0.5176490000000  0.5074150000000 1.0
C      1  0.4289110000000  0.4823510000000  0.4925850000000 1.0
C      1  0.5074150000000  0.4289110000000  0.5176490000000 1.0
C      1  0.4925850000000  0.4289110000000  0.4823510000000 1.0
C      1  0.4925850000000  0.5710890000000  0.5176490000000 1.0
C      1  0.4823510000000  0.5710890000000  0.5074150000000 1.0
C      1  0.5710890000000  0.5074150000000  0.4823510000000 1.0
C      1  0.5074150000000  0.4823510000000  0.5710890000000 1.0
C      1  0.4823510000000  0.4289110000000  0.4925850000000 1.0
C      1  0.5176490000000  0.5710890000000  0.4925850000000 1.0
C      1  0.5176490000000  0.4289110000000  0.5074150000000 1.0
C      1  0.5710890000000  0.4925850000000  0.5176490000000 1.0
C      1  0.4289110000000  0.5074150000000  0.5176490000000 1.0
C      1  0.4289110000000  0.4925850000000  0.4823510000000 1.0
C      1  0.5074150000000  0.5176490000000  0.4289110000000 1.0
C      1  0.4925850000000  0.4823510000000  0.4289110000000 1.0
C      1  0.4925850000000  0.5176490000000  0.5710890000000 1.0
C      1  0.5698870000000  0.4934320000000  0.4830070000000 1.0
C      1  0.4830070000000  0.5698870000000  0.4934320000000 1.0
C      1  0.4934320000000  0.4830070000000  0.5698870000000 1.0
C      1  0.5698870000000  0.5065680000000  0.5169930000000 1.0
C      1  0.4301130000000  0.5065680000000  0.4830070000000 1.0
C      1  0.4301130000000  0.4934320000000  0.5169930000000 1.0
C      1  0.4830070000000  0.4301130000000  0.5065680000000 1.0
C      1  0.5169930000000  0.4301130000000  0.4934320000000 1.0
C      1  0.5169930000000  0.5698870000000  0.5065680000000 1.0
C      1  0.4934320000000  0.5169930000000  0.4301130000000 1.0
C      1  0.5065680000000  0.5169930000000  0.5698870000000 1.0
C      1  0.5065680000000  0.4830070000000  0.4301130000000 1.0
C      1  0.5698870000000  0.4830070000000  0.4934320000000 1.0
C      1  0.4830070000000  0.4934320000000  0.5698870000000 1.0
C      1  0.4934320000000  0.5698870000000  0.4830070000000 1.0
C      1  0.5698870000000  0.5169930000000  0.5065680000000 1.0
C      1  0.4301130000000  0.4830070000000  0.5065680000000 1.0
C      1  0.4301130000000  0.5169930000000  0.4934320000000 1.0
C      1  0.4830070000000  0.5065680000000  0.4301130000000 1.0
C      1  0.5169930000000  0.4934320000000  0.4301130000000 1.0
C      1  0.5169930000000  0.5065680000000  0.5698870000000 1.0
C      1  0.4934320000000  0.4301130000000  0.5169930000000 1.0
C      1  0.5065680000000  0.5698870000000  0.5169930000000 1.0
C      1  0.5065680000000  0.4301130000000  0.4830070000000 1.0
C      1  0.4694860000000  0.4472860000000  0.5191230000000 1.0
C      1  0.5191230000000  0.4694860000000  0.4472860000000 1.0
C      1  0.4472860000000  0.5191230000000  0.4694850000000 1.0
C      1  0.4694850000000  0.5527140000000  0.4808770000000 1.0
C      1  0.5305150000000  0.5527140000000  0.5191230000000 1.0
C      1  0.5305150000000  0.4472860000000  0.4808770000000 1.0
C      1  0.5191230000000  0.5305150000000  0.5527140000000 1.0
C      1  0.4808770000000  0.5305150000000  0.4472860000000 1.0
C      1  0.4808770000000  0.4694860000000  0.5527140000000 1.0
C      1  0.4472860000000  0.4808770000000  0.5305140000000 1.0
C      1  0.5527140000000  0.4808770000000  0.4694860000000 1.0
C      1  0.5527140000000  0.5191230000000  0.5305150000000 1.0
C      1  0.4694850000000  0.5191230000000  0.4472860000000 1.0
C      1  0.5191230000000  0.4472860000000  0.4694850000000 1.0
C      1  0.4472860000000  0.4694850000000  0.5191230000000 1.0
C      1  0.4694850000000  0.4808770000000  0.5527140000000 1.0
C      1  0.5305150000000  0.5191230000000  0.5527140000000 1.0
C      1  0.5305150000000  0.4808770000000  0.4472860000000 1.0
C      1  0.5191230000000  0.5527140000000  0.5305150000000 1.0
C      1  0.4808770000000  0.4472860000000  0.5305150000000 1.0
C      1  0.4808770000000  0.5527140000000  0.4694850000000 1.0
C      1  0.4472860000000  0.5305150000000  0.4808770000000 1.0
C      1  0.5527140000000  0.4694850000000  0.4808770000000 1.0
C      1  0.5527140000000  0.5305150000000  0.5191230000000 1.0
C      1  0.5122610000000  0.5622680000000  0.4476550000000 1.0
C      1  0.4476550000000  0.5122610000000  0.5622680000000 1.0
C      1  0.5622680000000  0.4476550000000  0.5122610000000 1.0
C      1  0.5122610000000  0.4377320000000  0.5523450000000 1.0
C      1  0.4877390000000  0.4377320000000  0.4476550000000 1.0
C      1  0.4877390000000  0.5622680000000  0.5523450000000 1.0
C      1  0.4476550000000  0.4877390000000  0.4377320000000 1.0
C      1  0.5523450000000  0.4877390000000  0.5622680000000 1.0
C      1  0.5523450000000  0.5122610000000  0.4377320000000 1.0
C      1  0.5622680000000  0.5523450000000  0.4877390000000 1.0
C      1  0.4377320000000  0.5523450000000  0.5122610000000 1.0
C      1  0.4377320000000  0.4476550000000  0.4877390000000 1.0
C      1  0.5122610000000  0.4476550000000  0.5622680000000 1.0
C      1  0.4476550000000  0.5622680000000  0.5122610000000 1.0
C      1  0.5622680000000  0.5122610000000  0.4476550000000 1.0
C      1  0.5122610000000  0.5523450000000  0.4377320000000 1.0
C      1  0.4877390000000  0.4476550000000  0.4377320000000 1.0
C      1  0.4877390000000  0.5523450000000  0.5622680000000 1.0
C      1  0.4476550000000  0.4377320000000  0.4877390000000 1.0
C      1  0.5523450000000  0.5622680000000  0.4877390000000 1.0
C      1  0.5523450000000  0.4377320000000  0.5122610000000 1.0
C      1  0.5622680000000  0.4877390000000  0.5523450000000 1.0
C      1  0.4377320000000  0.5122610000000  0.5523450000000 1.0
C      1  0.4377320000000  0.4877390000000  0.4476550000000 1.0
C      1  0.4939040000000  0.5412850000000  0.4294900000000 1.0
C      1  0.4294900000000  0.4939040000000  0.5412850000000 1.0
C      1  0.5412850000000  0.4294900000000  0.4939040000000 1.0
C      1  0.4939040000000  0.4587150000000  0.5705100000000 1.0
C      1  0.5060960000000  0.4587150000000  0.4294900000000 1.0
C      1  0.5060960000000  0.5412850000000  0.5705100000000 1.0
C      1  0.4294900000000  0.5060960000000  0.4587150000000 1.0
C      1  0.5705100000000  0.5060960000000  0.5412850000000 1.0
C      1  0.5705100000000  0.4939040000000  0.4587150000000 1.0
C      1  0.5412850000000  0.5705100000000  0.5060960000000 1.0
C      1  0.4587150000000  0.5705100000000  0.4939040000000 1.0
C      1  0.4587150000000  0.4294900000000  0.5060960000000 1.0
C      1  0.4939040000000  0.4294900000000  0.5412850000000 1.0
C      1  0.4294900000000  0.5412850000000  0.4939040000000 1.0
C      1  0.5412850000000  0.4939040000000  0.4294900000000 1.0
C      1  0.4939040000000  0.5705100000000  0.4587150000000 1.0
C      1  0.5060960000000  0.4294900000000  0.4587150000000 1.0
C      1  0.5060960000000  0.5705100000000  0.5412850000000 1.0
C      1  0.4294900000000  0.4587150000000  0.5060960000000 1.0
C      1  0.5705100000000  0.5412850000000  0.5060960000000 1.0
C      1  0.5705100000000  0.4587150000000  0.4939040000000 1.0
C      1  0.5412850000000  0.5060960000000  0.5705100000000 1.0
C      1  0.4587150000000  0.4939040000000  0.5705100000000 1.0
C      1  0.4587150000000  0.5060960000000  0.4294900000000 1.0
C      1  0.5398280000000  0.5110820000000  0.5300420000000 1.0
C      1  0.5300420000000  0.5398280000000  0.5110820000000 1.0
C      1  0.5110820000000  0.5300420000000  0.5398280000000 1.0
C      1  0.5398280000000  0.4889180000000  0.4699580000000 1.0
C      1  0.4601720000000  0.4889180000000  0.5300420000000 1.0
C      1  0.4601720000000  0.5110820000000  0.4699580000000 1.0
C      1  0.5300420000000  0.4601720000000  0.4889180000000 1.0
C      1  0.4699580000000  0.4601720000000  0.5110820000000 1.0
C      1  0.4699580000000  0.5398280000000  0.4889180000000 1.0
C      1  0.5110820000000  0.4699580000000  0.4601720000000 1.0
C      1  0.4889180000000  0.4699580000000  0.5398280000000 1.0
C      1  0.4889180000000  0.5300420000000  0.4601720000000 1.0
C      1  0.5398280000000  0.5300420000000  0.5110820000000 1.0
C      1  0.5300420000000  0.5110820000000  0.5398280000000 1.0
C      1  0.5110820000000  0.5398280000000  0.5300420000000 1.0
C      1  0.5398280000000  0.4699580000000  0.4889180000000 1.0
C      1  0.4601720000000  0.5300420000000  0.4889180000000 1.0
C      1  0.4601720000000  0.4699580000000  0.5110820000000 1.0
C      1  0.5300420000000  0.4889180000000  0.4601720000000 1.0
C      1  0.4699580000000  0.5110820000000  0.4601720000000 1.0
C      1  0.4699580000000  0.4889180000000  0.5398280000000 1.0
C      1  0.5110820000000  0.4601720000000  0.4699580000000 1.0
C      1  0.4889180000000  0.5398280000000  0.4699580000000 1.0
C      1  0.4889180000000  0.4601720000000  0.5300420000000 1.0
C      1  0.4676650000000  0.4471240000000  0.5618260000000 1.0
C      1  0.5618260000000  0.4676650000000  0.4471240000000 1.0
C      1  0.4471240000000  0.5618260000000  0.4676650000000 1.0
C      1  0.4676650000000  0.5528760000000  0.4381740000000 1.0
C      1  0.5323360000000  0.5528760000000  0.5618260000000 1.0
C      1  0.5323350000000  0.4471240000000  0.4381740000000 1.0
C      1  0.5618260000000  0.5323360000000  0.5528760000000 1.0
C      1  0.4381740000000  0.5323350000000  0.4471240000000 1.0
C      1  0.4381740000000  0.4676650000000  0.5528760000000 1.0
C      1  0.4471240000000  0.4381740000000  0.5323350000000 1.0
C      1  0.5528760000000  0.4381740000000  0.4676650000000 1.0
C      1  0.5528760000000  0.5618260000000  0.5323360000000 1.0
C      1  0.4676640000000  0.5618260000000  0.4471240000000 1.0
C      1  0.5618260000000  0.4471240000000  0.4676640000000 1.0
C      1  0.4471240000000  0.4676640000000  0.5618260000000 1.0
C      1  0.4676640000000  0.4381740000000  0.5528760000000 1.0
C      1  0.5323350000000  0.5618260000000  0.5528760000000 1.0
C      1  0.5323360000000  0.4381740000000  0.4471240000000 1.0
C      1  0.5618260000000  0.5528760000000  0.5323350000000 1.0
C      1  0.4381740000000  0.4471240000000  0.5323360000000 1.0
C      1  0.4381740000000  0.5528760000000  0.4676640000000 1.0
C      1  0.4471240000000  0.5323360000000  0.4381740000000 1.0
C      1  0.5528760000000  0.4676640000000  0.4381740000000 1.0
C      1  0.5528760000000  0.5323350000000  0.5618260000000 1.0
C      1  0.4983200000000  0.5718010000000  0.5509400000000 1.0
C      1  0.5509400000000  0.4983200000000  0.5718010000000 1.0
C      1  0.5718010000000  0.5509400000000  0.4983200000000 1.0
C      1  0.4983200000000  0.4281990000000  0.4490600000000 1.0
C      1  0.5016800000000  0.4281990000000  0.5509400000000 1.0
C      1  0.5016800000000  0.5718010000000  0.4490600000000 1.0
C      1  0.5509400000000  0.5016800000000  0.4281990000000 1.0
C      1  0.4490600000000  0.5016800000000  0.5718010000000 1.0
C      1  0.4490600000000  0.4983200000000  0.4281990000000 1.0
C      1  0.5718010000000  0.4490600000000  0.5016800000000 1.0
C      1  0.4281990000000  0.4490600000000  0.4983200000000 1.0
C      1  0.4281990000000  0.5509400000000  0.5016800000000 1.0
C      1  0.4983200000000  0.5509400000000  0.5718010000000 1.0
C      1  0.5509400000000  0.5718010000000  0.4983200000000 1.0
C      1  0.5718010000000  0.4983200000000  0.5509400000000 1.0
C      1  0.4983200000000  0.4490600000000  0.4281990000000 1.0
C      1  0.5016800000000  0.5509400000000  0.4281990000000 1.0
C      1  0.5016800000000  0.4490600000000  0.5718010000000 1.0
C      1  0.5509400000000  0.4281990000000  0.5016800000000 1.0
C      1  0.4490600000000  0.5718010000000  0.5016800000000 1.0
C      1  0.4490600000000  0.4281990000000  0.4983200000000 1.0
C      1  0.5718010000000  0.5016800000000  0.4490600000000 1.0
C      1  0.4281990000000  0.4983200000000  0.4490600000000 1.0
C      1  0.4281990000000  0.5016800000000  0.5509400000000 1.0
C      1  0.4822970000000  0.4721740000000  0.4333080000000 1.0
C      1  0.4333080000000  0.4822970000000  0.4721740000000 1.0
C      1  0.4721740000000  0.4333080000000  0.4822970000000 1.0
C      1  0.4822970000000  0.5278260000000  0.5666920000000 1.0
C      1  0.5177030000000  0.5278260000000  0.4333080000000 1.0
C      1  0.5177030000000  0.4721740000000  0.5666920000000 1.0
C      1  0.4333080000000  0.5177030000000  0.5278260000000 1.0
C      1  0.5666920000000  0.5177030000000  0.4721740000000 1.0
C      1  0.5666920000000  0.4822970000000  0.5278260000000 1.0
C      1  0.4721740000000  0.5666920000000  0.5177030000000 1.0
C      1  0.5278260000000  0.5666920000000  0.4822970000000 1.0
C      1  0.5278260000000  0.4333080000000  0.5177030000000 1.0
C      1  0.4822970000000  0.4333080000000  0.4721740000000 1.0
C      1  0.4333080000000  0.4721740000000  0.4822970000000 1.0
C      1  0.4721740000000  0.4822970000000  0.4333080000000 1.0
C      1  0.4822970000000  0.5666920000000  0.5278260000000 1.0
C      1  0.5177030000000  0.4333080000000  0.5278260000000 1.0
C      1  0.5177030000000  0.5666920000000  0.4721740000000 1.0
C      1  0.4333080000000  0.5278260000000  0.5177030000000 1.0
C      1  0.5666920000000  0.4721740000000  0.5177030000000 1.0
C      1  0.5666920000000  0.5278260000000  0.4822970000000 1.0
C      1  0.4721740000000  0.5177030000000  0.5666920000000 1.0
C      1  0.5278260000000  0.4822970000000  0.5666920000000 1.0
C      1  0.5278260000000  0.5177030000000  0.4333080000000 1.0
C      1  0.5259420000000  0.4946320000000  0.5157970000000 1.0
C      1  0.5157970000000  0.5259420000000  0.4946320000000 1.0
C      1  0.4946320000000  0.5157970000000  0.5259420000000 1.0
C      1  0.5259420000000  0.5053680000000  0.4842030000000 1.0
C      1  0.4740580000000  0.5053680000000  0.5157970000000 1.0
C      1  0.4740580000000  0.4946320000000  0.4842030000000 1.0
C      1  0.5157970000000  0.4740580000000  0.5053680000000 1.0
C      1  0.4842030000000  0.4740580000000  0.4946320000000 1.0
C      1  0.4842030000000  0.5259420000000  0.5053680000000 1.0
C      1  0.4946320000000  0.4842030000000  0.4740580000000 1.0
C      1  0.5053680000000  0.4842030000000  0.5259420000000 1.0
C      1  0.5053680000000  0.5157970000000  0.4740580000000 1.0
C      1  0.5259420000000  0.5157970000000  0.4946320000000 1.0
C      1  0.5157970000000  0.4946320000000  0.5259420000000 1.0
C      1  0.4946320000000  0.5259420000000  0.5157970000000 1.0
C      1  0.5259420000000  0.4842030000000  0.5053680000000 1.0
C      1  0.4740580000000  0.5157970000000  0.5053680000000 1.0
C      1  0.4740580000000  0.4842030000000  0.4946320000000 1.0
C      1  0.5157970000000  0.5053680000000  0.4740580000000 1.0
C      1  0.4842030000000  0.4946320000000  0.4740580000000 1.0
C      1  0.4842030000000  0.5053680000000  0.5259420000000 1.0
C      1  0.4946320000000  0.4740580000000  0.4842030000000 1.0
C      1  0.5053680000000  0.5259420000000  0.4842030000000 1.0
C      1  0.5053680000000  0.4740580000000  0.5157970000000 1.0
C      1  0.4489370000000  0.4691220000000  0.4590450000000 1.0
C      1  0.4590450000000  0.4489370000000  0.4691220000000 1.0
C      1  0.4691220000000  0.4590450000000  0.4489370000000 1.0
C      1  0.4489370000000  0.5308780000000  0.5409550000000 1.0
C      1  0.5510630000000  0.5308780000000  0.4590450000000 1.0
C      1  0.5510630000000  0.4691220000000  0.5409550000000 1.0
C      1  0.4590450000000  0.5510630000000  0.5308780000000 1.0
C      1  0.5409550000000  0.5510630000000  0.4691220000000 1.0
C      1  0.5409550000000  0.4489370000000  0.5308780000000 1.0
C      1  0.4691220000000  0.5409550000000  0.5510630000000 1.0
C      1  0.5308780000000  0.5409550000000  0.4489370000000 1.0
C      1  0.5308780000000  0.4590450000000  0.5510630000000 1.0
C      1  0.4489370000000  0.4590450000000  0.4691220000000 1.0
C      1  0.4590450000000  0.4691220000000  0.4489370000000 1.0
C      1  0.4691220000000  0.4489370000000  0.4590450000000 1.0
C      1  0.4489370000000  0.5409550000000  0.5308780000000 1.0
C      1  0.5510630000000  0.4590450000000  0.5308780000000 1.0
C      1  0.5510630000000  0.5409550000000  0.4691220000000 1.0
C      1  0.4590450000000  0.5308780000000  0.5510630000000 1.0
C      1  0.5409550000000  0.4691220000000  0.5510630000000 1.0
C      1  0.5409550000000  0.5308780000000  0.4489370000000 1.0
C      1  0.4691220000000  0.5510630000000  0.5409550000000 1.0
C      1  0.5308780000000  0.4489370000000  0.5409550000000 1.0
C      1  0.5308780000000  0.5510630000000  0.4590450000000 1.0
C      1  0.5166360000000  0.4646220000000  0.4933890000000 1.0
C      1  0.4933890000000  0.5166360000000  0.4646220000000 1.0
C      1  0.4646220000000  0.4933890000000  0.5166360000000 1.0
C      1  0.5166360000000  0.5353780000000  0.5066110000000 1.0
C      1  0.4833640000000  0.5353780000000  0.4933890000000 1.0
C      1  0.4833640000000  0.4646220000000  0.5066110000000 1.0
C      1  0.4933890000000  0.4833640000000  0.5353780000000 1.0
C      1  0.5066110000000  0.4833640000000  0.4646220000000 1.0
C      1  0.5066110000000  0.5166360000000  0.5353780000000 1.0
C      1  0.4646220000000  0.5066110000000  0.4833640000000 1.0
C      1  0.5353780000000  0.5066110000000  0.5166360000000 1.0
C      1  0.5353780000000  0.4933890000000  0.4833640000000 1.0
C      1  0.5166360000000  0.4933890000000  0.4646220000000 1.0
C      1  0.4933890000000  0.4646220000000  0.5166360000000 1.0
C      1  0.4646220000000  0.5166360000000  0.4933890000000 1.0
C      1  0.5166360000000  0.5066110000000  0.5353780000000 1.0
C      1  0.4833640000000  0.4933890000000  0.5353780000000 1.0
C      1  0.4833640000000  0.5066110000000  0.4646220000000 1.0
C      1  0.4933890000000  0.5353780000000  0.4833640000000 1.0
C      1  0.5066110000000  0.4646220000000  0.4833640000000 1.0
C      1  0.5066110000000  0.5353780000000  0.5166360000000 1.0
C      1  0.4646220000000  0.4833640000000  0.5066110000000 1.0
C      1  0.5353780000000  0.5166360000000  0.5066110000000 1.0
C      1  0.5353780000000  0.4833640000000  0.4933890000000 1.0
C      1  0.5298400000000  0.5656210000000  0.5114980000000 1.0
C      1  0.5114980000000  0.5298400000000  0.5656210000000 1.0
C      1  0.5656210000000  0.5114980000000  0.5298400000000 1.0
C      1  0.5298400000000  0.4343790000000  0.4885020000000 1.0
C      1  0.4701600000000  0.4343790000000  0.5114980000000 1.0
C      1  0.4701600000000  0.5656210000000  0.4885020000000 1.0
C      1  0.5114980000000  0.4701600000000  0.4343790000000 1.0
C      1  0.4885020000000  0.4701600000000  0.5656210000000 1.0
C      1  0.4885020000000  0.5298400000000  0.4343790000000 1.0
C      1  0.5656210000000  0.4885020000000  0.4701600000000 1.0
C      1  0.4343790000000  0.4885020000000  0.5298400000000 1.0
C      1  0.4343790000000  0.5114980000000  0.4701600000000 1.0
C      1  0.5298400000000  0.5114980000000  0.5656210000000 1.0
C      1  0.5114980000000  0.5656210000000  0.5298400000000 1.0
C      1  0.5656210000000  0.5298400000000  0.5114980000000 1.0
C      1  0.5298400000000  0.4885020000000  0.4343790000000 1.0
C      1  0.4701600000000  0.5114980000000  0.4343790000000 1.0
C      1  0.4701600000000  0.4885020000000  0.5656210000000 1.0
C      1  0.5114980000000  0.4343790000000  0.4701600000000 1.0
C      1  0.4885020000000  0.5656210000000  0.4701600000000 1.0
C      1  0.4885020000000  0.4343790000000  0.5298400000000 1.0
C      1  0.5656210000000  0.4701600000000  0.4885020000000 1.0
C      1  0.4343790000000  0.5298400000000  0.4885020000000 1.0
C      1  0.4343790000000  0.4701600000000  0.5114980000000 1.0
C      1  0.5585120000000  0.5301410000000  0.5396980000000 1.0
C      1  0.5396980000000  0.5585120000000  0.5301410000000 1.0
C      1  0.5301410000000  0.5396980000000  0.5585120000000 1.0
C      1  0.5585120000000  0.4698590000000  0.4603020000000 1.0
C      1  0.4414880000000  0.4698590000000  0.5396980000000 1.0
C      1  0.4414880000000  0.5301410000000  0.4603020000000 1.0
C      1  0.5396980000000  0.4414880000000  0.4698590000000 1.0
C      1  0.4603020000000  0.4414880000000  0.5301410000000 1.0
C      1  0.4603020000000  0.5585120000000  0.4698590000000 1.0
C      1  0.5301410000000  0.4603020000000  0.4414880000000 1.0
C      1  0.4698590000000  0.4603020000000  0.5585120000000 1.0
C      1  0.4698590000000  0.5396980000000  0.4414880000000 1.0
C      1  0.5585120000000  0.5396980000000  0.5301410000000 1.0
C      1  0.5396980000000  0.5301410000000  0.5585120000000 1.0
C      1  0.5301410000000  0.5585120000000  0.5396980000000 1.0
C      1  0.5585120000000  0.4603020000000  0.4698590000000 1.0
C      1  0.4414880000000  0.5396980000000  0.4698590000000 1.0
C      1  0.4414890000000  0.4603020000000  0.5301420000000 1.0
C      1  0.5396980000000  0.4698590000000  0.4414880000000 1.0
C      1  0.4603020000000  0.5301410000000  0.4414880000000 1.0
C      1  0.4603020000000  0.4698580000000  0.5585110000000 1.0
C      1  0.5301410000000  0.4414880000000  0.4603020000000 1.0
C      1  0.4698590000000  0.5585120000000  0.4603020000000 1.0
C      1  0.4698580000000  0.4414890000000  0.5396980000000 1.0
C      1  0.5606140000000  0.4798400000000  0.5404930000000 1.0
C      1  0.5404930000000  0.5606140000000  0.4798400000000 1.0
C      1  0.4798400000000  0.5404930000000  0.5606140000000 1.0
C      1  0.5606140000000  0.5201600000000  0.4595070000000 1.0
C      1  0.4393860000000  0.5201600000000  0.5404930000000 1.0
C      1  0.4393860000000  0.4798400000000  0.4595070000000 1.0
C      1  0.5404930000000  0.4393860000000  0.5201600000000 1.0
C      1  0.4595070000000  0.4393860000000  0.4798400000000 1.0
C      1  0.4595070000000  0.5606140000000  0.5201600000000 1.0
C      1  0.4798400000000  0.4595070000000  0.4393860000000 1.0
C      1  0.5201600000000  0.4595070000000  0.5606140000000 1.0
C      1  0.5201600000000  0.5404930000000  0.4393860000000 1.0
C      1  0.5606140000000  0.5404930000000  0.4798400000000 1.0
C      1  0.5404930000000  0.4798400000000  0.5606140000000 1.0
C      1  0.4798400000000  0.5606140000000  0.5404930000000 1.0
C      1  0.5606140000000  0.4595070000000  0.5201600000000 1.0
C      1  0.4393860000000  0.5404930000000  0.5201600000000 1.0
C      1  0.4393860000000  0.4595070000000  0.4798400000000 1.0
C      1  0.5404930000000  0.5201600000000  0.4393860000000 1.0
C      1  0.4595070000000  0.4798400000000  0.4393860000000 1.0
C      1  0.4595070000000  0.5201600000000  0.5606140000000 1.0
C      1  0.4798400000000  0.4393860000000  0.4595070000000 1.0
C      1  0.5201600000000  0.5606140000000  0.4595070000000 1.0
C      1  0.5201600000000  0.4393860000000  0.5404930000000 1.0
END
