TITL C-1887022-1887-60 3.30470209301379e-07 1000000 -3547.08509887845 0 0 500 (C3) n - 1
REM
REM in /nfs/bkarasulu/CARBON/AIRSS/Generating-Clusters/GAP-ML-2020/Higher-Symm/Selected-Sizes/TryA-Only_Ih-Symm/Larger-Clusters
REM
REM
REM
REM
REM
REM ./C.cell (2cf5181f0f1d4d5b12b972d32ad12063)
REM
REM compiler GCC version 9.2.1 20190827 (Red Hat 9.2.1-1)
REM options -cpp -mtune=generic -march=x86-64 -g -O0 -fpre-include=/usr/include/finclude/math-vector-fortran.h
REM seed 1442269495 -442073598 -1302910690 -192212003 1283108592 -1451865306 1921809747 -1195264410 -1084860494 1859886033 -1737501127 83870291 1327190781 -754358749 -1384314441 1065098870 2021831841 1701386392 1599783958 -1940449805 1884209380 229960920 -1242788372 -1415781346 -2016344477 2089262090 844887808 415122445 -1443810576 -285281952 638437812 2036252153 1301742864
REM
CELL 1.54180  100.00000  100.00000  100.00000   90.00000   90.00000   90.00000
LATT -1
SFAC C  
C      1  0.4496430000000  0.5083570000000  0.5080030000000 1.0
C      1  0.5145080000000  0.5075790000000  0.4462200000000 1.0
C      1  0.5071860000000  0.4480170000000  0.5113090000000 1.0
C      1  0.5539750000000  0.4856700000000  0.5075960000000 1.0
C      1  0.4471400000000  0.4843070000000  0.4935980000000 1.0
C      1  0.5521620000000  0.5112910000000  0.4930080000000 1.0
C      1  0.4888860000000  0.4929910000000  0.4480340000000 1.0
C      1  0.5158720000000  0.4935810000000  0.5530550000000 1.0
C      1  0.4918220000000  0.5079870000000  0.5505520000000 1.0
C      1  0.4921930000000  0.5505350000000  0.5083740000000 1.0
C      1  0.5065980000000  0.5530380000000  0.4843230000000 1.0
C      1  0.4925980000000  0.4462030000000  0.4856870000000 1.0
C      1  0.4501120000000  0.5085330000000  0.4933790000000 1.0
C      1  0.5157220000000  0.5076720000000  0.5536540000000 1.0
C      1  0.5068680000000  0.4470170000000  0.4856580000000 1.0
C      1  0.5531610000000  0.4856400000000  0.4933260000000 1.0
C      1  0.4465410000000  0.4844570000000  0.5076890000000 1.0
C      1  0.5533950000000  0.5111520000000  0.5079000000000 1.0
C      1  0.4916460000000  0.4933630000000  0.5500830000000 1.0
C      1  0.5145370000000  0.4933090000000  0.4470340000000 1.0
C      1  0.4890260000000  0.5078840000000  0.4468010000000 1.0
C      1  0.4925080000000  0.5536370000000  0.4844730000000 1.0
C      1  0.5068170000000  0.5500660000000  0.5085490000000 1.0
C      1  0.4922930000000  0.4467840000000  0.5111700000000 1.0
C      1  0.4691270000000  0.5247950000000  0.4542570000000 1.0
C      1  0.5234620000000  0.4552960000000  0.4678470000000 1.0
C      1  0.4546720000000  0.4681620000000  0.5245390000000 1.0
C      1  0.5323480000000  0.4767150000000  0.4553130000000 1.0
C      1  0.4694130000000  0.4767680000000  0.5436290000000 1.0
C      1  0.5320180000000  0.5245220000000  0.5455230000000 1.0
C      1  0.4756570000000  0.5455060000000  0.4681780000000 1.0
C      1  0.5234120000000  0.5436120000000  0.5307820000000 1.0
C      1  0.4753830000000  0.4542410000000  0.5310680000000 1.0
C      1  0.5459390000000  0.5310510000000  0.5248120000000 1.0
C      1  0.4565670000000  0.5307660000000  0.4767840000000 1.0
C      1  0.5448810000000  0.4678290000000  0.4767320000000 1.0
C      1  0.4702500000000  0.5246040000000  0.5448520000000 1.0
C      1  0.5236440000000  0.4557870000000  0.5318440000000 1.0
C      1  0.4550880000000  0.4673920000000  0.4770590000000 1.0
C      1  0.5327870000000  0.4770420000000  0.5451070000000 1.0
C      1  0.4683510000000  0.4765340000000  0.4558040000000 1.0
C      1  0.5319640000000  0.5247610000000  0.4541480000000 1.0
C      1  0.4755760000000  0.5448360000000  0.5299450000000 1.0
C      1  0.5231370000000  0.5450890000000  0.4674080000000 1.0
C      1  0.4754160000000  0.4541310000000  0.4682320000000 1.0
C      1  0.5443920000000  0.5318260000000  0.4765500000000 1.0
C      1  0.4553440000000  0.5299290000000  0.5246210000000 1.0
C      1  0.5460470000000  0.4682150000000  0.5247780000000 1.0
C      1  0.5370400000000  0.4861320000000  0.4251360000000 1.0
C      1  0.4854180000000  0.4256480000000  0.5366200000000 1.0
C      1  0.4358900000000  0.5406520000000  0.4858650000000 1.0
C      1  0.4635750000000  0.5147590000000  0.4256650000000 1.0
C      1  0.5362920000000  0.5159090000000  0.5760210000000 1.0
C      1  0.4595270000000  0.4858490000000  0.5643060000000 1.0
C      1  0.5143310000000  0.5642890000000  0.5406680000000 1.0
C      1  0.4842700000000  0.5760040000000  0.4639030000000 1.0
C      1  0.5140440000000  0.4251190000000  0.4631550000000 1.0
C      1  0.5750580000000  0.4631370000000  0.4861500000000 1.0
C      1  0.4241740000000  0.4638870000000  0.5159270000000 1.0
C      1  0.5745310000000  0.5366030000000  0.5147760000000 1.0
C      1  0.5363770000000  0.4865050000000  0.5759640000000 1.0
C      1  0.4849930000000  0.4245420000000  0.4632460000000 1.0
C      1  0.4346630000000  0.5402560000000  0.5162630000000 1.0
C      1  0.4599240000000  0.5162460000000  0.5655330000000 1.0
C      1  0.5369490000000  0.5151830000000  0.4245590000000 1.0
C      1  0.4624470000000  0.4859850000000  0.4271380000000 1.0
C      1  0.5136740000000  0.5759470000000  0.4638180000000 1.0
C      1  0.4839340000000  0.5655160000000  0.5402720000000 1.0
C      1  0.5141930000000  0.4271210000000  0.5377480000000 1.0
C      1  0.5756360000000  0.4632280000000  0.5152010000000 1.0
C      1  0.4242310000000  0.4638020000000  0.4865230000000 1.0
C      1  0.5730590000000  0.5377300000000  0.4860020000000 1.0
C      1  0.5364370000000  0.5628600000000  0.5141300000000 1.0
C      1  0.5646790000000  0.5140060000000  0.5387150000000 1.0
C      1  0.5117870000000  0.5373690000000  0.5630820000000 1.0
C      1  0.4614790000000  0.4355000000000  0.5140240000000 1.0
C      1  0.5357130000000  0.4366920000000  0.4873990000000 1.0
C      1  0.4628100000000  0.5630650000000  0.4884090000000 1.0
C      1  0.4371140000000  0.4883930000000  0.5373860000000 1.0
C      1  0.5634860000000  0.4873820000000  0.4644800000000 1.0
C      1  0.4373190000000  0.5141140000000  0.4637590000000 1.0
C      1  0.4860640000000  0.4637430000000  0.5628770000000 1.0
C      1  0.5127950000000  0.4644630000000  0.4367090000000 1.0
C      1  0.4861720000000  0.5386980000000  0.4355170000000 1.0
C      1  0.5349750000000  0.5631640000000  0.4880500000000 1.0
C      1  0.5636250000000  0.5139880000000  0.4631190000000 1.0
C      1  0.5129460000000  0.5373060000000  0.4357050000000 1.0
C      1  0.4628710000000  0.4356880000000  0.4872490000000 1.0
C      1  0.5370740000000  0.4365540000000  0.5140050000000 1.0
C      1  0.4610500000000  0.5628340000000  0.5134680000000 1.0
C      1  0.4370140000000  0.4880340000000  0.4652210000000 1.0
C      1  0.5644900000000  0.4872320000000  0.5373230000000 1.0
C      1  0.4373450000000  0.5134520000000  0.5391460000000 1.0
C      1  0.4861890000000  0.4631030000000  0.4365710000000 1.0
C      1  0.5121440000000  0.4652040000000  0.5631810000000 1.0
C      1  0.4867280000000  0.5391300000000  0.5628510000000 1.0
C      1  0.4752640000000  0.5774860000000  0.4735710000000 1.0
C      1  0.5772500000000  0.4724650000000  0.4770260000000 1.0
C      1  0.4692410000000  0.4785190000000  0.5743420000000 1.0
C      1  0.5231680000000  0.4229280000000  0.4724830000000 1.0
C      1  0.4750800000000  0.4226920000000  0.5288420000000 1.0
C      1  0.5216610000000  0.5743250000000  0.5309540000000 1.0
C      1  0.4258540000000  0.5309380000000  0.4785360000000 1.0
C      1  0.5774870000000  0.5288240000000  0.5251140000000 1.0
C      1  0.4226920000000  0.4735550000000  0.5249320000000 1.0
C      1  0.5266250000000  0.5249150000000  0.5775030000000 1.0
C      1  0.4713540000000  0.5250970000000  0.4227080000000 1.0
C      1  0.5277120000000  0.4770080000000  0.4229450000000 1.0
C      1  0.4755680000000  0.5752070000000  0.5306540000000 1.0
C      1  0.5778970000000  0.4723970000000  0.5244960000000 1.0
C      1  0.4712690000000  0.4766420000000  0.4237980000000 1.0
C      1  0.5235350000000  0.4237810000000  0.5289260000000 1.0
C      1  0.4756970000000  0.4222810000000  0.4724150000000 1.0
C      1  0.5225460000000  0.5775370000000  0.4735140000000 1.0
C      1  0.4249720000000  0.5306390000000  0.5246290000000 1.0
C      1  0.5763980000000  0.5289080000000  0.4766590000000 1.0
C      1  0.4226400000000  0.4734980000000  0.4776510000000 1.0
C      1  0.5277800000000  0.5244790000000  0.4222980000000 1.0
C      1  0.4695410000000  0.5246120000000  0.5752240000000 1.0
C      1  0.5266810000000  0.4776340000000  0.5775540000000 1.0
C      1  0.5293510000000  0.4502910000000  0.4942250000000 1.0
C      1  0.4508330000000  0.4938560000000  0.5301970000000 1.0
C      1  0.4921190000000  0.5351370000000  0.4494850000000 1.0
C      1  0.4699990000000  0.5493460000000  0.4938730000000 1.0
C      1  0.5340660000000  0.5485490000000  0.5079890000000 1.0
C      1  0.4650400000000  0.4494680000000  0.5080770000000 1.0
C      1  0.5507100000000  0.5080590000000  0.5351540000000 1.0
C      1  0.4516300000000  0.5079720000000  0.4661310000000 1.0
C      1  0.5498860000000  0.4942080000000  0.4708430000000 1.0
C      1  0.5059690000000  0.4708260000000  0.4503080000000 1.0
C      1  0.4922060000000  0.4661140000000  0.5485660000000 1.0
C      1  0.5063230000000  0.5301800000000  0.5493620000000 1.0
C      1  0.5340830000000  0.4506720000000  0.5082310000000 1.0
C      1  0.4509590000000  0.4938720000000  0.4713510000000 1.0
C      1  0.4924650000000  0.5355460000000  0.5485820000000 1.0
C      1  0.4646340000000  0.5485660000000  0.5077310000000 1.0
C      1  0.5288450000000  0.5492190000000  0.4938880000000 1.0
C      1  0.4699460000000  0.4489570000000  0.4941600000000 1.0
C      1  0.5495060000000  0.5082130000000  0.4661110000000 1.0
C      1  0.4516130000000  0.5077150000000  0.5355620000000 1.0
C      1  0.5512220000000  0.4941430000000  0.5302480000000 1.0
C      1  0.5063070000000  0.4713340000000  0.5492360000000 1.0
C      1  0.4919630000000  0.4660940000000  0.4506890000000 1.0
C      1  0.5060360000000  0.5302310000000  0.4489730000000 1.0
C      1  0.4616620000000  0.5186060000000  0.5335070000000 1.0
C      1  0.5185860000000  0.5321140000000  0.4593180000000 1.0
C      1  0.5328460000000  0.4606320000000  0.5192440000000 1.0
C      1  0.5408760000000  0.4815930000000  0.5321310000000 1.0
C      1  0.4606090000000  0.4811330000000  0.4692790000000 1.0
C      1  0.5395460000000  0.5192260000000  0.4673490000000 1.0
C      1  0.4809510000000  0.4673320000000  0.4606490000000 1.0
C      1  0.5190450000000  0.4692620000000  0.5395860000000 1.0
C      1  0.4815730000000  0.5334900000000  0.5385340000000 1.0
C      1  0.4666890000000  0.5385170000000  0.5186220000000 1.0
C      1  0.5309170000000  0.5395690000000  0.4811500000000 1.0
C      1  0.4680630000000  0.4593020000000  0.4816100000000 1.0
C      1  0.4615730000000  0.5191430000000  0.4670640000000 1.0
C      1  0.5185760000000  0.5312280000000  0.5391500000000 1.0
C      1  0.5314310000000  0.4602090000000  0.4815560000000 1.0
C      1  0.5399680000000  0.4815390000000  0.4687640000000 1.0
C      1  0.4610450000000  0.4816040000000  0.5312440000000 1.0
C      1  0.5403970000000  0.5187930000000  0.5332760000000 1.0
C      1  0.4810350000000  0.4670480000000  0.5386220000000 1.0
C      1  0.5186380000000  0.4687470000000  0.4602270000000 1.0
C      1  0.4813850000000  0.5332590000000  0.4597990000000 1.0
C      1  0.4689510000000  0.5391330000000  0.4816200000000 1.0
C      1  0.5331320000000  0.5386050000000  0.5191600000000 1.0
C      1  0.4669180000000  0.4597820000000  0.5188100000000 1.0
C      1  0.5381680000000  0.5319900000000  0.5570050000000 1.0
C      1  0.5275690000000  0.5560710000000  0.5396100000000 1.0
C      1  0.5568660000000  0.5393280000000  0.5320810000000 1.0
C      1  0.4605850000000  0.4726110000000  0.5560880000000 1.0
C      1  0.5393800000000  0.4696470000000  0.4437140000000 1.0
C      1  0.4608500000000  0.5320650000000  0.4433300000000 1.0
C      1  0.4681130000000  0.4433140000000  0.5393460000000 1.0
C      1  0.5305300000000  0.4436970000000  0.4608140000000 1.0
C      1  0.4681890000000  0.5569880000000  0.4620280000000 1.0
C      1  0.4431890000000  0.4620120000000  0.5320080000000 1.0
C      1  0.5564800000000  0.4607960000000  0.4696640000000 1.0
C      1  0.4441080000000  0.5395940000000  0.4726270000000 1.0
C      1  0.5393030000000  0.5320630000000  0.4429210000000 1.0
C      1  0.5301910000000  0.5570280000000  0.4612280000000 1.0
C      1  0.5559790000000  0.5397400000000  0.4698600000000 1.0
C      1  0.4604370000000  0.4698440000000  0.4442170000000 1.0
C      1  0.5389670000000  0.4699880000000  0.5570450000000 1.0
C      1  0.4613380000000  0.5293600000000  0.5569570000000 1.0
C      1  0.4681130000000  0.4429040000000  0.4608920000000 1.0
C      1  0.5303340000000  0.4442000000000  0.5397570000000 1.0
C      1  0.4708200000000  0.5569400000000  0.5388580000000 1.0
C      1  0.4431490000000  0.4612110000000  0.4700050000000 1.0
C      1  0.5572740000000  0.4608750000000  0.5320810000000 1.0
C      1  0.4432390000000  0.5388420000000  0.5293760000000 1.0
C      1  0.5750860000000  0.4938630000000  0.4708570000000 1.0
C      1  0.4915080000000  0.4719870000000  0.5738240000000 1.0
C      1  0.4693030000000  0.5748320000000  0.4948770000000 1.0
C      1  0.4263710000000  0.5086710000000  0.4720030000000 1.0
C      1  0.5758990000000  0.5074780000000  0.5313110000000 1.0
C      1  0.4253460000000  0.4948610000000  0.5308940000000 1.0
C      1  0.5053190000000  0.5308770000000  0.5748490000000 1.0
C      1  0.4927000000000  0.5312940000000  0.4242960000000 1.0
C      1  0.5063130000000  0.4708400000000  0.4251090000000 1.0
C      1  0.5293370000000  0.4250920000000  0.4938810000000 1.0
C      1  0.4688820000000  0.4242790000000  0.5074960000000 1.0
C      1  0.5281930000000  0.5738080000000  0.5086870000000 1.0
C      1  0.5763050000000  0.4937280000000  0.5312320000000 1.0
C      1  0.4926100000000  0.4707730000000  0.4254680000000 1.0
C      1  0.4693780000000  0.5740460000000  0.5084380000000 1.0
C      1  0.4261330000000  0.5084230000000  0.5308190000000 1.0
C      1  0.5747280000000  0.5075660000000  0.4707900000000 1.0
C      1  0.4255200000000  0.4949800000000  0.4717120000000 1.0
C      1  0.5064490000000  0.5312150000000  0.4238900000000 1.0
C      1  0.4917570000000  0.5308020000000  0.5740630000000 1.0
C      1  0.5051990000000  0.4716950000000  0.5746750000000 1.0
C      1  0.5294030000000  0.4254510000000  0.5075840000000 1.0
C      1  0.4689610000000  0.4238730000000  0.4937460000000 1.0
C      1  0.5284850000000  0.5746580000000  0.4949950000000 1.0
C      1  0.5288370000000  0.4505870000000  0.4372220000000 1.0
C      1  0.4483800000000  0.4373990000000  0.5305290000000 1.0
C      1  0.4373880000000  0.5302890000000  0.4507750000000 1.0
C      1  0.4696670000000  0.5517970000000  0.4374160000000 1.0
C      1  0.5269820000000  0.5511560000000  0.5633380000000 1.0
C      1  0.4698890000000  0.4507590000000  0.5628070000000 1.0
C      1  0.5494210000000  0.5627900000000  0.5303060000000 1.0
C      1  0.4490230000000  0.5633220000000  0.4732140000000 1.0
C      1  0.5495900000000  0.4372050000000  0.4713580000000 1.0
C      1  0.5629720000000  0.4713400000000  0.4506040000000 1.0
C      1  0.4368570000000  0.4731980000000  0.5511730000000 1.0
C      1  0.5627800000000  0.5305120000000  0.5518140000000 1.0
C      1  0.5279770000000  0.4512100000000  0.5631770000000 1.0
C      1  0.4489750000000  0.4371280000000  0.4713470000000 1.0
C      1  0.4373830000000  0.5294530000000  0.5514810000000 1.0
C      1  0.4707280000000  0.5514640000000  0.5628130000000 1.0
C      1  0.5288490000000  0.5512020000000  0.4371440000000 1.0
C      1  0.4697520000000  0.4498850000000  0.4372110000000 1.0
C      1  0.5489690000000  0.5631600000000  0.4722180000000 1.0
C      1  0.4487160000000  0.5627970000000  0.5294690000000 1.0
C      1  0.5502920000000  0.4371940000000  0.5304420000000 1.0
C      1  0.5630510000000  0.4713290000000  0.5512190000000 1.0
C      1  0.4370170000000  0.4722020000000  0.4512270000000 1.0
C      1  0.5629840000000  0.5304240000000  0.4499020000000 1.0
C      1  0.4790200000000  0.5142170000000  0.5516080000000 1.0
C      1  0.5113890000000  0.5527420000000  0.4711240000000 1.0
C      1  0.5536750000000  0.4724860000000  0.5131040000000 1.0
C      1  0.5290710000000  0.4887900000000  0.5527590000000 1.0
C      1  0.4749780000000  0.4879070000000  0.4487130000000 1.0
C      1  0.5276920000000  0.5130870000000  0.4465200000000 1.0
C      1  0.4870900000000  0.4465030000000  0.4725040000000 1.0
C      1  0.5122700000000  0.4486970000000  0.5252160000000 1.0
C      1  0.4859630000000  0.5515910000000  0.5211760000000 1.0
C      1  0.4485880000000  0.5211590000000  0.5142340000000 1.0
C      1  0.5514830000000  0.5251990000000  0.4879240000000 1.0
C      1  0.4474350000000  0.4711070000000  0.4888070000000 1.0
C      1  0.4755200000000  0.5135710000000  0.4467830000000 1.0
C      1  0.5123930000000  0.5498090000000  0.5219270000000 1.0
C      1  0.5525050000000  0.4722660000000  0.4882990000000 1.0
C      1  0.5279120000000  0.4882820000000  0.4476890000000 1.0
C      1  0.4782680000000  0.4877870000000  0.5498250000000 1.0
C      1  0.5286150000000  0.5131380000000  0.5538530000000 1.0
C      1  0.4866060000000  0.4467660000000  0.5246750000000 1.0
C      1  0.5118950000000  0.4476730000000  0.4722830000000 1.0
C      1  0.4870410000000  0.5538360000000  0.4715810000000 1.0
C      1  0.4503700000000  0.5219100000000  0.4878040000000 1.0
C      1  0.5534130000000  0.5246570000000  0.5135880000000 1.0
C      1  0.4463410000000  0.4715640000000  0.5131550000000 1.0
C      1  0.5062440000000  0.5601830000000  0.4455550000000 1.0
C      1  0.5595900000000  0.4457290000000  0.5077160000000 1.0
C      1  0.4468670000000  0.5086450000000  0.5634540000000 1.0
C      1  0.4924780000000  0.4405880000000  0.4457460000000 1.0
C      1  0.5060190000000  0.4427920000000  0.5526180000000 1.0
C      1  0.4915350000000  0.5634370000000  0.5533290000000 1.0
C      1  0.4367420000000  0.5533120000000  0.5086620000000 1.0
C      1  0.5573870000000  0.5526000000000  0.4941760000000 1.0
C      1  0.4399940000000  0.4455390000000  0.4939520000000 1.0
C      1  0.5546400000000  0.4939350000000  0.5602000000000 1.0
C      1  0.4475770000000  0.4941590000000  0.4428090000000 1.0
C      1  0.5544490000000  0.5076980000000  0.4406040000000 1.0
C      1  0.5060660000000  0.5622750000000  0.5532590000000 1.0
C      1  0.5586590000000  0.4460020000000  0.4938210000000 1.0
C      1  0.4472070000000  0.5079610000000  0.4416330000000 1.0
C      1  0.4922170000000  0.4416160000000  0.5529880000000 1.0
C      1  0.5063730000000  0.4415180000000  0.4460190000000 1.0
C      1  0.4923310000000  0.5610280000000  0.4454020000000 1.0
C      1  0.4379040000000  0.5532420000000  0.4941300000000 1.0
C      1  0.5585630000000  0.5529710000000  0.5079770000000 1.0
C      1  0.4391490000000  0.4453850000000  0.5078660000000 1.0
C      1  0.5541760000000  0.4938030000000  0.4415350000000 1.0
C      1  0.4469370000000  0.4941140000000  0.5622920000000 1.0
C      1  0.5547940000000  0.5078480000000  0.5610450000000 1.0
C      1  0.5522570000000  0.5385590000000  0.4450980000000 1.0
C      1  0.5363780000000  0.4460710000000  0.5528990000000 1.0
C      1  0.4450490000000  0.5514870000000  0.5368900000000 1.0
C      1  0.4472950000000  0.4637990000000  0.4460880000000 1.0
C      1  0.5520710000000  0.4634760000000  0.5559580000000 1.0
C      1  0.4486930000000  0.5368740000000  0.5551470000000 1.0
C      1  0.4633060000000  0.5551300000000  0.5515030000000 1.0
C      1  0.5367030000000  0.5559400000000  0.4481240000000 1.0
C      1  0.4616180000000  0.4450810000000  0.4479380000000 1.0
C      1  0.5550970000000  0.4479210000000  0.5385760000000 1.0
C      1  0.4442360000000  0.4481080000000  0.4634930000000 1.0
C      1  0.5541080000000  0.5528810000000  0.4638160000000 1.0
C      1  0.5514100000000  0.5380270000000  0.5562490000000 1.0
C      1  0.5369540000000  0.4454730000000  0.4478170000000 1.0
C      1  0.4450310000000  0.5525090000000  0.4651800000000 1.0
C      1  0.4476690000000  0.4651640000000  0.5551650000000 1.0
C      1  0.5523770000000  0.4632230000000  0.4454900000000 1.0
C      1  0.4479030000000  0.5384730000000  0.4461030000000 1.0
C      1  0.4621520000000  0.5562320000000  0.4487860000000 1.0
C      1  0.5350160000000  0.5551480000000  0.5525260000000 1.0
C      1  0.4617040000000  0.4460860000000  0.5522930000000 1.0
C      1  0.5547040000000  0.4477990000000  0.4632400000000 1.0
C      1  0.4439450000000  0.4487700000000  0.5380440000000 1.0
C      1  0.5540940000000  0.5522750000000  0.5384900000000 1.0
C      1  0.5801180000000  0.5155570000000  0.4809790000000 1.0
C      1  0.5130510000000  0.4816200000000  0.5807010000000 1.0
C      1  0.4795270000000  0.5788980000000  0.5172820000000 1.0
C      1  0.4194930000000  0.4871280000000  0.4816370000000 1.0
C      1  0.5815640000000  0.4859590000000  0.5207210000000 1.0
C      1  0.4212800000000  0.5172660000000  0.5206700000000 1.0
C      1  0.4829140000000  0.5206530000000  0.5789150000000 1.0
C      1  0.5142190000000  0.5207040000000  0.4186310000000 1.0
C      1  0.4846200000000  0.4809620000000  0.4200780000000 1.0
C      1  0.5192150000000  0.4200610000000  0.5155750000000 1.0
C      1  0.4794720000000  0.4186140000000  0.4859770000000 1.0
C      1  0.5185600000000  0.5806840000000  0.4871440000000 1.0
C      1  0.5809750000000  0.5153590000000  0.5209000000000 1.0
C      1  0.5141750000000  0.4809960000000  0.4193960000000 1.0
C      1  0.4792420000000  0.5808570000000  0.4870890000000 1.0
C      1  0.4193210000000  0.4870740000000  0.5209550000000 1.0
C      1  0.5807990000000  0.4860020000000  0.4810130000000 1.0
C      1  0.4218540000000  0.5175810000000  0.4822940000000 1.0
C      1  0.4848190000000  0.5208840000000  0.4192200000000 1.0
C      1  0.5131060000000  0.5209380000000  0.5808740000000 1.0
C      1  0.4825980000000  0.4822770000000  0.5783410000000 1.0
C      1  0.5191800000000  0.4193790000000  0.4860200000000 1.0
C      1  0.4792930000000  0.4192040000000  0.5153770000000 1.0
C      1  0.5179030000000  0.5783240000000  0.5175970000000 1.0
C      1  0.4759170000000  0.4710330000000  0.4846780000000 1.0
C      1  0.4725720000000  0.4833690000000  0.4774740000000 1.0
C      1  0.4845860000000  0.4752900000000  0.4721660000000 1.0
C      1  0.5227220000000  0.5276050000000  0.4833860000000 1.0
C      1  0.4754350000000  0.5270730000000  0.5153250000000 1.0
C      1  0.5248870000000  0.4721490000000  0.5156090000000 1.0
C      1  0.5280300000000  0.5155920000000  0.4753080000000 1.0
C      1  0.4731060000000  0.5153090000000  0.5247600000000 1.0
C      1  0.5291450000000  0.4846610000000  0.5242780000000 1.0
C      1  0.5155180000000  0.5242600000000  0.4710500000000 1.0
C      1  0.4848700000000  0.5247440000000  0.5270900000000 1.0
C      1  0.5168090000000  0.4774570000000  0.5276220000000 1.0
C      1  0.4752420000000  0.4710990000000  0.5146190000000 1.0
C      1  0.4725410000000  0.4834490000000  0.5219820000000 1.0
C      1  0.4845140000000  0.4747580000000  0.5268820000000 1.0
C      1  0.5254210000000  0.5268650000000  0.5156810000000 1.0
C      1  0.4782130000000  0.5276360000000  0.4834660000000 1.0
C      1  0.5239280000000  0.4721690000000  0.4844140000000 1.0
C      1  0.5290800000000  0.5146020000000  0.5249520000000 1.0
C      1  0.4733130000000  0.5156640000000  0.4747740000000 1.0
C      1  0.5280090000000  0.4843970000000  0.4762660000000 1.0
C      1  0.5167300000000  0.5219650000000  0.5276530000000 1.0
C      1  0.4855760000000  0.5249350000000  0.4711160000000 1.0
C      1  0.5157810000000  0.4762490000000  0.4721860000000 1.0
C      1  0.5343360000000  0.5655610000000  0.5297700000000 1.0
C      1  0.5671090000000  0.5297780000000  0.5367260000000 1.0
C      1  0.5273740000000  0.5361510000000  0.5666150000000 1.0
C      1  0.4634670000000  0.4330700000000  0.5297960000000 1.0
C      1  0.5344640000000  0.4337780000000  0.4714250000000 1.0
C      1  0.4640280000000  0.5665980000000  0.4728220000000 1.0
C      1  0.4335800000000  0.4728060000000  0.5361680000000 1.0
C      1  0.5663990000000  0.4714070000000  0.4657300000000 1.0
C      1  0.4346170000000  0.5297540000000  0.4658610000000 1.0
C      1  0.4704240000000  0.4658440000000  0.5655790000000 1.0
C      1  0.5287700000000  0.4657120000000  0.4337950000000 1.0
C      1  0.4704000000000  0.5367100000000  0.4330870000000 1.0
C      1  0.5338520000000  0.5666720000000  0.4722950000000 1.0
C      1  0.5661510000000  0.5298560000000  0.4650550000000 1.0
C      1  0.5288170000000  0.5360780000000  0.4330110000000 1.0
C      1  0.4640980000000  0.4329940000000  0.4713780000000 1.0
C      1  0.5351390000000  0.4340280000000  0.5298730000000 1.0
C      1  0.4634990000000  0.5660530000000  0.5291880000000 1.0
C      1  0.4335050000000  0.4722800000000  0.4663450000000 1.0
C      1  0.5671840000000  0.4713600000000  0.5360950000000 1.0
C      1  0.4341260000000  0.5291720000000  0.5366970000000 1.0
C      1  0.4703210000000  0.4650380000000  0.4340450000000 1.0
C      1  0.5278990000000  0.4663280000000  0.5666890000000 1.0
C      1  0.4710080000000  0.5366810000000  0.5660700000000 1.0
C      1  0.4919950000000  0.5084190000000  0.4170100000000 1.0
C      1  0.5069060000000  0.4170590000000  0.4934610000000 1.0
C      1  0.4171740000000  0.4947280000000  0.5087890000000 1.0
C      1  0.5067340000000  0.4932710000000  0.4170750000000 1.0
C      1  0.4905100000000  0.4939060000000  0.5818270000000 1.0
C      1  0.5054510000000  0.5087720000000  0.5830210000000 1.0
C      1  0.4914080000000  0.5830040000000  0.4947440000000 1.0
C      1  0.5062740000000  0.5818100000000  0.5096850000000 1.0
C      1  0.4917580000000  0.4169940000000  0.5082000000000 1.0
C      1  0.5831850000000  0.5081820000000  0.5084350000000 1.0
C      1  0.4183680000000  0.5096690000000  0.4939230000000 1.0
C      1  0.5831200000000  0.4934430000000  0.4932880000000 1.0
C      1  0.4906110000000  0.5088190000000  0.5821430000000 1.0
C      1  0.5068920000000  0.4174490000000  0.5082710000000 1.0
C      1  0.4174210000000  0.4948060000000  0.4938060000000 1.0
C      1  0.5053740000000  0.4937890000000  0.5827740000000 1.0
C      1  0.4919250000000  0.4932840000000  0.4174660000000 1.0
C      1  0.5067430000000  0.5083510000000  0.4166820000000 1.0
C      1  0.4913610000000  0.5821260000000  0.5095850000000 1.0
C      1  0.5063910000000  0.5827570000000  0.4948220000000 1.0
C      1  0.4918260000000  0.4166660000000  0.4934520000000 1.0
C      1  0.5827300000000  0.5082520000000  0.4933010000000 1.0
C      1  0.4180530000000  0.5095690000000  0.5088360000000 1.0
C      1  0.5835130000000  0.4934340000000  0.5083680000000 1.0
C      1  0.4845800000000  0.5542270000000  0.5620660000000 1.0
C      1  0.5498320000000  0.5609880000000  0.4863330000000 1.0
C      1  0.5621230000000  0.4856080000000  0.5521380000000 1.0
C      1  0.5138610000000  0.4503470000000  0.5610060000000 1.0
C      1  0.4839190000000  0.4481940000000  0.4377760000000 1.0
C      1  0.5145710000000  0.5521210000000  0.4380720000000 1.0
C      1  0.4480560000000  0.4380560000000  0.4856250000000 1.0
C      1  0.5519830000000  0.4377590000000  0.5162750000000 1.0
C      1  0.4459530000000  0.5620500000000  0.5156160000000 1.0
C      1  0.4381300000000  0.5156000000000  0.5542430000000 1.0
C      1  0.5624190000000  0.5162580000000  0.4482110000000 1.0
C      1  0.4391890000000  0.4863170000000  0.4503640000000 1.0
C      1  0.4837810000000  0.5535360000000  0.4373340000000 1.0
C      1  0.5513400000000  0.5615630000000  0.5162240000000 1.0
C      1  0.5616800000000  0.4855820000000  0.4496180000000 1.0
C      1  0.5145940000000  0.4496010000000  0.4385150000000 1.0
C      1  0.4839700000000  0.4488400000000  0.5615800000000 1.0
C      1  0.5129000000000  0.5527050000000  0.5616620000000 1.0
C      1  0.4466410000000  0.4373180000000  0.5164160000000 1.0
C      1  0.5505750000000  0.4384980000000  0.4856000000000 1.0
C      1  0.4474740000000  0.5616460000000  0.4872970000000 1.0
C      1  0.4386150000000  0.5162080000000  0.4488560000000 1.0
C      1  0.5628610000000  0.5163980000000  0.5535520000000 1.0
C      1  0.4385330000000  0.4872810000000  0.5527220000000 1.0
C      1  0.4874830000000  0.4738330000000  0.4928980000000 1.0
C      1  0.4819090000000  0.4930250000000  0.4828310000000 1.0
C      1  0.4931720000000  0.4829750000000  0.4821540000000 1.0
C      1  0.5173640000000  0.5182690000000  0.4930420000000 1.0
C      1  0.4833360000000  0.5183920000000  0.5065100000000 1.0
C      1  0.5172030000000  0.4821370000000  0.5070230000000 1.0
C      1  0.5180410000000  0.5070060000000  0.4829920000000 1.0
C      1  0.4817860000000  0.5064930000000  0.5168590000000 1.0
C      1  0.5263450000000  0.4928810000000  0.5127120000000 1.0
C      1  0.5072980000000  0.5126950000000  0.4738500000000 1.0
C      1  0.4936850000000  0.5168420000000  0.5184090000000 1.0
C      1  0.5071530000000  0.4828150000000  0.5182860000000 1.0
C      1  0.4866590000000  0.4739850000000  0.5061460000000 1.0
C      1  0.4821630000000  0.4928800000000  0.5168910000000 1.0
C      1  0.4933330000000  0.4820680000000  0.5172030000000 1.0
C      1  0.5181110000000  0.5171860000000  0.5068620000000 1.0
C      1  0.4833040000000  0.5180150000000  0.4928970000000 1.0
C      1  0.5156310000000  0.4806030000000  0.4931340000000 1.0
C      1  0.5261940000000  0.5061290000000  0.5135360000000 1.0
C      1  0.4829930000000  0.5068450000000  0.4820850000000 1.0
C      1  0.5195750000000  0.4931170000000  0.4845640000000 1.0
C      1  0.5072990000000  0.5168740000000  0.5180320000000 1.0
C      1  0.4940490000000  0.5135190000000  0.4740020000000 1.0
C      1  0.5070610000000  0.4845470000000  0.4806200000000 1.0
C      1  0.5072170000000  0.4374170000000  0.4612650000000 1.0
C      1  0.4360530000000  0.4607900000000  0.5086760000000 1.0
C      1  0.4637850000000  0.5082470000000  0.4381430000000 1.0
C      1  0.4915200000000  0.5641240000000  0.4608060000000 1.0
C      1  0.5056890000000  0.5572030000000  0.5314970000000 1.0
C      1  0.4919310000000  0.4381260000000  0.5364100000000 1.0
C      1  0.5620530000000  0.5363920000000  0.5082630000000 1.0
C      1  0.4429760000000  0.5314810000000  0.4945080000000 1.0
C      1  0.5627600000000  0.4612470000000  0.4929770000000 1.0
C      1  0.5389300000000  0.4929590000000  0.4374340000000 1.0
C      1  0.4686980000000  0.4944910000000  0.5572200000000 1.0
C      1  0.5393890000000  0.5086590000000  0.5641410000000 1.0
C      1  0.5069160000000  0.4392570000000  0.5367010000000 1.0
C      1  0.4364510000000  0.4608120000000  0.4931940000000 1.0
C      1  0.4696610000000  0.5075490000000  0.5592940000000 1.0
C      1  0.4926310000000  0.5592770000000  0.5305350000000 1.0
C      1  0.5070020000000  0.5637260000000  0.4608280000000 1.0
C      1  0.4917980000000  0.4368430000000  0.4611900000000 1.0
C      1  0.5609230000000  0.5366840000000  0.4932780000000 1.0
C      1  0.4409020000000  0.5305180000000  0.5075660000000 1.0
C      1  0.5633350000000  0.4611730000000  0.5083960000000 1.0
C      1  0.5393670000000  0.4931770000000  0.5637440000000 1.0
C      1  0.4634930000000  0.4932610000000  0.4392730000000 1.0
C      1  0.5390050000000  0.5083790000000  0.4368600000000 1.0
C      1  0.4849670000000  0.5513380000000  0.4961020000000 1.0
C      1  0.5144150000000  0.4485430000000  0.4978290000000 1.0
C      1  0.5516360000000  0.4978120000000  0.4857780000000 1.0
C      1  0.5041260000000  0.4862440000000  0.5505540000000 1.0
C      1  0.4496410000000  0.4960530000000  0.4862610000000 1.0
C      1  0.5534400000000  0.4977320000000  0.5152020000000 1.0
C      1  0.4488400000000  0.4960860000000  0.5152290000000 1.0
C      1  0.5040940000000  0.5152120000000  0.5513550000000 1.0
C      1  0.5024460000000  0.5151850000000  0.4467550000000 1.0
C      1  0.5023660000000  0.4857620000000  0.4485590000000 1.0
C      1  0.4849920000000  0.4467380000000  0.4977490000000 1.0
C      1  0.5139350000000  0.5505370000000  0.4960690000000 1.0
C      1  0.5499160000000  0.5514290000000  0.4503620000000 1.0
C      1  0.5498320000000  0.4502630000000  0.5514460000000 1.0
C      1  0.4506480000000  0.5495320000000  0.5495480000000 1.0
C      1  0.5501780000000  0.4499980000000  0.4500160000000 1.0
C      1  0.4493710000000  0.5511760000000  0.4517800000000 1.0
C      1  0.4490020000000  0.4517630000000  0.5508260000000 1.0
C      1  0.4487480000000  0.4503460000000  0.4502800000000 1.0
C      1  0.5484170000000  0.5508080000000  0.5511930000000 1.0
END
