TITL C-1887010-575-70 4.3440618508834e-07 1000000 -2208.9677017606 0 0 320 (Th) n - 1
REM
REM in /nfs/bkarasulu/CARBON/AIRSS/Generating-Clusters/GAP-ML-2020/Higher-Symm/Selected-Sizes/TryA-Only_Ih-Symm/Larger-Clusters
REM
REM
REM
REM
REM
REM ./C.cell (2cf5181f0f1d4d5b12b972d32ad12063)
REM
REM compiler GCC version 9.2.1 20190827 (Red Hat 9.2.1-1)
REM options -cpp -mtune=generic -march=x86-64 -g -O0 -fpre-include=/usr/include/finclude/math-vector-fortran.h
REM seed 447720133 596383493 198612083 210626734 -1104732107 -991977687 -942134799 -1901664058 1917205983 -1800220169 -1091781014 1565125073 -1609276526 -961409486 -1132265832 -1524559385 1598668425 415144789 902359798 -1076796944 -2114395222 1753679888 1171460993 -1830034169 -1296953637 1475188761 108165642 1866059938 959283088 1052710098 1307766296 -639578971 -1757899824
REM
CELL 1.54180  100.00000  100.00000  100.00000   90.00000   90.00000   90.00000
LATT -1
SFAC C  
C      1  0.4843120000000  0.4477070000000  0.5433300000000 1.0
C      1  0.5434400000000  0.4842450000000  0.4476630000000 1.0
C      1  0.4477740000000  0.5433730000000  0.4842020000000 1.0
C      1  0.5157750000000  0.4477070000000  0.4565360000000 1.0
C      1  0.4843120000000  0.5522460000000  0.4565360000000 1.0
C      1  0.5157750000000  0.5522460000000  0.5433300000000 1.0
C      1  0.4566460000000  0.4842450000000  0.5522030000000 1.0
C      1  0.5434400000000  0.5157070000000  0.5522030000000 1.0
C      1  0.4566460000000  0.5157070000000  0.4476630000000 1.0
C      1  0.5523130000000  0.5433730000000  0.5156640000000 1.0
C      1  0.4477740000000  0.4565790000000  0.5156640000000 1.0
C      1  0.5523130000000  0.4565790000000  0.4842020000000 1.0
C      1  0.4843120000000  0.5522460000000  0.5433300000000 1.0
C      1  0.5434400000000  0.5157070000000  0.4476630000000 1.0
C      1  0.4477740000000  0.4565790000000  0.4842020000000 1.0
C      1  0.5157750000000  0.5522460000000  0.4565360000000 1.0
C      1  0.4843120000000  0.4477070000000  0.4565360000000 1.0
C      1  0.5157750000000  0.4477070000000  0.5433300000000 1.0
C      1  0.4566460000000  0.5157070000000  0.5522030000000 1.0
C      1  0.5434400000000  0.4842450000000  0.5522030000000 1.0
C      1  0.4566460000000  0.4842450000000  0.4476630000000 1.0
C      1  0.5523130000000  0.4565790000000  0.5156640000000 1.0
C      1  0.4477740000000  0.5433730000000  0.5156640000000 1.0
C      1  0.5523130000000  0.5433730000000  0.4842020000000 1.0
C      1  0.4764430000000  0.4916340000000  0.4675940000000 1.0
C      1  0.4677040000000  0.4763760000000  0.4915910000000 1.0
C      1  0.4917020000000  0.4676370000000  0.4763320000000 1.0
C      1  0.5236440000000  0.4916340000000  0.5322720000000 1.0
C      1  0.4764430000000  0.5083180000000  0.5322720000000 1.0
C      1  0.5236440000000  0.5083180000000  0.4675940000000 1.0
C      1  0.5323820000000  0.4763760000000  0.5082750000000 1.0
C      1  0.4677040000000  0.5235770000000  0.5082750000000 1.0
C      1  0.5323820000000  0.5235770000000  0.4915910000000 1.0
C      1  0.5083850000000  0.4676370000000  0.5235340000000 1.0
C      1  0.4917020000000  0.5323150000000  0.5235340000000 1.0
C      1  0.5083850000000  0.5323150000000  0.4763320000000 1.0
C      1  0.4764430000000  0.5083180000000  0.4675940000000 1.0
C      1  0.4677040000000  0.5235770000000  0.4915910000000 1.0
C      1  0.4917020000000  0.5323150000000  0.4763320000000 1.0
C      1  0.5236440000000  0.5083180000000  0.5322720000000 1.0
C      1  0.4764430000000  0.4916340000000  0.5322720000000 1.0
C      1  0.5236440000000  0.4916340000000  0.4675940000000 1.0
C      1  0.5323820000000  0.5235770000000  0.5082750000000 1.0
C      1  0.4677040000000  0.4763760000000  0.5082750000000 1.0
C      1  0.5323820000000  0.4763760000000  0.4915910000000 1.0
C      1  0.5083850000000  0.5323150000000  0.5235340000000 1.0
C      1  0.4917020000000  0.4676370000000  0.5235340000000 1.0
C      1  0.5083850000000  0.4676370000000  0.4763320000000 1.0
C      1  0.4613440000000  0.5067910000000  0.4700300000000 1.0
C      1  0.4701400000000  0.4612770000000  0.5067470000000 1.0
C      1  0.5068580000000  0.4700730000000  0.4612340000000 1.0
C      1  0.5387430000000  0.5067910000000  0.5298360000000 1.0
C      1  0.4613440000000  0.4931620000000  0.5298360000000 1.0
C      1  0.5387430000000  0.4931620000000  0.4700300000000 1.0
C      1  0.5299460000000  0.4612770000000  0.4931190000000 1.0
C      1  0.4701400000000  0.5386760000000  0.4931190000000 1.0
C      1  0.5299460000000  0.5386760000000  0.5067470000000 1.0
C      1  0.4932290000000  0.4700730000000  0.5386320000000 1.0
C      1  0.5068580000000  0.5298790000000  0.5386320000000 1.0
C      1  0.4932290000000  0.5298790000000  0.4612340000000 1.0
C      1  0.4613440000000  0.4931620000000  0.4700300000000 1.0
C      1  0.4701400000000  0.5386760000000  0.5067470000000 1.0
C      1  0.5068580000000  0.5298790000000  0.4612340000000 1.0
C      1  0.5387430000000  0.4931620000000  0.5298360000000 1.0
C      1  0.4613440000000  0.5067910000000  0.5298360000000 1.0
C      1  0.5387430000000  0.5067910000000  0.4700300000000 1.0
C      1  0.5299460000000  0.5386760000000  0.4931190000000 1.0
C      1  0.4701400000000  0.4612770000000  0.4931190000000 1.0
C      1  0.5299460000000  0.4612770000000  0.5067470000000 1.0
C      1  0.4932290000000  0.5298790000000  0.5386320000000 1.0
C      1  0.5068580000000  0.4700730000000  0.5386320000000 1.0
C      1  0.4932290000000  0.4700730000000  0.4612340000000 1.0
C      1  0.4455000000000  0.5540930000000  0.4926420000000 1.0
C      1  0.4927520000000  0.4454330000000  0.5540500000000 1.0
C      1  0.5541600000000  0.4926850000000  0.4453900000000 1.0
C      1  0.5545860000000  0.5540930000000  0.5072240000000 1.0
C      1  0.4455000000000  0.4458590000000  0.5072240000000 1.0
C      1  0.5545860000000  0.4458590000000  0.4926420000000 1.0
C      1  0.5073350000000  0.4454330000000  0.4458160000000 1.0
C      1  0.4927520000000  0.5545190000000  0.4458160000000 1.0
C      1  0.5073350000000  0.5545190000000  0.5540500000000 1.0
C      1  0.4459260000000  0.4926850000000  0.5544760000000 1.0
C      1  0.5541600000000  0.5072680000000  0.5544760000000 1.0
C      1  0.4459260000000  0.5072680000000  0.4453900000000 1.0
C      1  0.4455000000000  0.4458590000000  0.4926420000000 1.0
C      1  0.4927520000000  0.5545190000000  0.5540500000000 1.0
C      1  0.5541600000000  0.5072680000000  0.4453900000000 1.0
C      1  0.5545860000000  0.4458590000000  0.5072240000000 1.0
C      1  0.4455000000000  0.5540930000000  0.5072240000000 1.0
C      1  0.5545860000000  0.5540930000000  0.4926420000000 1.0
C      1  0.5073350000000  0.5545190000000  0.4458160000000 1.0
C      1  0.4927520000000  0.4454330000000  0.4458160000000 1.0
C      1  0.5073350000000  0.4454330000000  0.5540500000000 1.0
C      1  0.4459260000000  0.5072680000000  0.5544760000000 1.0
C      1  0.5541600000000  0.4926850000000  0.5544760000000 1.0
C      1  0.4459260000000  0.4926850000000  0.4453900000000 1.0
C      1  0.4935930000000  0.4752630000000  0.5745970000000 1.0
C      1  0.5747080000000  0.4935260000000  0.4752200000000 1.0
C      1  0.4753300000000  0.5746410000000  0.4934830000000 1.0
C      1  0.5064930000000  0.4752630000000  0.4252690000000 1.0
C      1  0.4935930000000  0.5246890000000  0.4252690000000 1.0
C      1  0.5064930000000  0.5246890000000  0.5745970000000 1.0
C      1  0.4253790000000  0.4935260000000  0.5246460000000 1.0
C      1  0.5747080000000  0.5064260000000  0.5246460000000 1.0
C      1  0.4253790000000  0.5064260000000  0.4752200000000 1.0
C      1  0.5247560000000  0.5746410000000  0.5063830000000 1.0
C      1  0.4753300000000  0.4253120000000  0.5063830000000 1.0
C      1  0.5247560000000  0.4253120000000  0.4934830000000 1.0
C      1  0.4935930000000  0.5246890000000  0.5745970000000 1.0
C      1  0.5747080000000  0.5064260000000  0.4752200000000 1.0
C      1  0.4753300000000  0.4253120000000  0.4934830000000 1.0
C      1  0.5064930000000  0.5246890000000  0.4252690000000 1.0
C      1  0.4935930000000  0.4752630000000  0.4252690000000 1.0
C      1  0.5064930000000  0.4752630000000  0.5745970000000 1.0
C      1  0.4253790000000  0.5064260000000  0.5246460000000 1.0
C      1  0.5747080000000  0.4935260000000  0.5246460000000 1.0
C      1  0.4253790000000  0.4935260000000  0.4752200000000 1.0
C      1  0.5247560000000  0.4253120000000  0.5063830000000 1.0
C      1  0.4753300000000  0.5746410000000  0.5063830000000 1.0
C      1  0.5247560000000  0.5746410000000  0.4934830000000 1.0
C      1  0.4871980000000  0.4676790000000  0.4363430000000 1.0
C      1  0.4364530000000  0.4871310000000  0.4676350000000 1.0
C      1  0.4677460000000  0.4363860000000  0.4870880000000 1.0
C      1  0.5128880000000  0.4676790000000  0.5635230000000 1.0
C      1  0.4871980000000  0.5322740000000  0.5635230000000 1.0
C      1  0.5128880000000  0.5322740000000  0.4363430000000 1.0
C      1  0.5636330000000  0.4871310000000  0.5322310000000 1.0
C      1  0.4364530000000  0.5128210000000  0.5322310000000 1.0
C      1  0.5636330000000  0.5128210000000  0.4676350000000 1.0
C      1  0.5323410000000  0.4363860000000  0.5127780000000 1.0
C      1  0.4677460000000  0.5635660000000  0.5127780000000 1.0
C      1  0.5323410000000  0.5635660000000  0.4870880000000 1.0
C      1  0.4871980000000  0.5322740000000  0.4363430000000 1.0
C      1  0.4364530000000  0.5128210000000  0.4676350000000 1.0
C      1  0.4677460000000  0.5635660000000  0.4870880000000 1.0
C      1  0.5128880000000  0.5322740000000  0.5635230000000 1.0
C      1  0.4871980000000  0.4676790000000  0.5635230000000 1.0
C      1  0.5128880000000  0.4676790000000  0.4363430000000 1.0
C      1  0.5636330000000  0.5128210000000  0.5322310000000 1.0
C      1  0.4364530000000  0.4871310000000  0.5322310000000 1.0
C      1  0.5636330000000  0.4871310000000  0.4676350000000 1.0
C      1  0.5323410000000  0.5635660000000  0.5127780000000 1.0
C      1  0.4677460000000  0.4363860000000  0.5127780000000 1.0
C      1  0.5323410000000  0.4363860000000  0.4870880000000 1.0
C      1  0.4801300000000  0.5150100000000  0.5075130000000 1.0
C      1  0.5076230000000  0.4800630000000  0.5149670000000 1.0
C      1  0.5150770000000  0.5075560000000  0.4800190000000 1.0
C      1  0.5199570000000  0.5150100000000  0.4923530000000 1.0
C      1  0.4801300000000  0.4849420000000  0.4923530000000 1.0
C      1  0.5199570000000  0.4849420000000  0.5075130000000 1.0
C      1  0.4924630000000  0.4800630000000  0.4848990000000 1.0
C      1  0.5076230000000  0.5198900000000  0.4848990000000 1.0
C      1  0.4924630000000  0.5198900000000  0.5149670000000 1.0
C      1  0.4850090000000  0.5075560000000  0.5198470000000 1.0
C      1  0.5150770000000  0.4923960000000  0.5198470000000 1.0
C      1  0.4850090000000  0.4923960000000  0.4800190000000 1.0
C      1  0.4801300000000  0.4849420000000  0.5075130000000 1.0
C      1  0.5076230000000  0.5198900000000  0.5149670000000 1.0
C      1  0.5150770000000  0.4923960000000  0.4800190000000 1.0
C      1  0.5199570000000  0.4849420000000  0.4923530000000 1.0
C      1  0.4801300000000  0.5150100000000  0.4923530000000 1.0
C      1  0.5199570000000  0.5150100000000  0.5075130000000 1.0
C      1  0.4924630000000  0.5198900000000  0.4848990000000 1.0
C      1  0.5076230000000  0.4800630000000  0.4848990000000 1.0
C      1  0.4924630000000  0.4800630000000  0.5149670000000 1.0
C      1  0.4850090000000  0.4923960000000  0.5198470000000 1.0
C      1  0.5150770000000  0.5075560000000  0.5198470000000 1.0
C      1  0.4850090000000  0.5075560000000  0.4800190000000 1.0
C      1  0.4711920000000  0.5495400000000  0.5172910000000 1.0
C      1  0.5174010000000  0.4711250000000  0.5494970000000 1.0
C      1  0.5496070000000  0.5173340000000  0.4710820000000 1.0
C      1  0.5288940000000  0.5495400000000  0.4825750000000 1.0
C      1  0.4711920000000  0.4504130000000  0.4825750000000 1.0
C      1  0.5288940000000  0.4504130000000  0.5172910000000 1.0
C      1  0.4826850000000  0.4711250000000  0.4503690000000 1.0
C      1  0.5174010000000  0.5288270000000  0.4503690000000 1.0
C      1  0.4826850000000  0.5288270000000  0.5494970000000 1.0
C      1  0.4504800000000  0.5173340000000  0.5287840000000 1.0
C      1  0.5496070000000  0.4826180000000  0.5287840000000 1.0
C      1  0.4504800000000  0.4826180000000  0.4710820000000 1.0
C      1  0.4711920000000  0.4504130000000  0.5172910000000 1.0
C      1  0.5174010000000  0.5288270000000  0.5494970000000 1.0
C      1  0.5496070000000  0.4826180000000  0.4710820000000 1.0
C      1  0.5288940000000  0.4504130000000  0.4825750000000 1.0
C      1  0.4711920000000  0.5495400000000  0.4825750000000 1.0
C      1  0.5288940000000  0.5495400000000  0.5172910000000 1.0
C      1  0.4826850000000  0.5288270000000  0.4503690000000 1.0
C      1  0.5174010000000  0.4711250000000  0.4503690000000 1.0
C      1  0.4826850000000  0.4711250000000  0.5494970000000 1.0
C      1  0.4504800000000  0.4826180000000  0.5287840000000 1.0
C      1  0.5496070000000  0.5173340000000  0.5287840000000 1.0
C      1  0.4504800000000  0.5173340000000  0.4710820000000 1.0
C      1  0.4927590000000  0.5537790000000  0.4681080000000 1.0
C      1  0.4682190000000  0.4926920000000  0.5537360000000 1.0
C      1  0.5538460000000  0.4681520000000  0.4926490000000 1.0
C      1  0.5073270000000  0.5537790000000  0.5317570000000 1.0
C      1  0.4927590000000  0.4461730000000  0.5317570000000 1.0
C      1  0.5073270000000  0.4461730000000  0.4681080000000 1.0
C      1  0.5318680000000  0.4926920000000  0.4461300000000 1.0
C      1  0.4682190000000  0.5072600000000  0.4461300000000 1.0
C      1  0.5318680000000  0.5072600000000  0.5537360000000 1.0
C      1  0.4462410000000  0.4681520000000  0.5072170000000 1.0
C      1  0.5538460000000  0.5318010000000  0.5072170000000 1.0
C      1  0.4462410000000  0.5318010000000  0.4926490000000 1.0
C      1  0.4927590000000  0.4461730000000  0.4681080000000 1.0
C      1  0.4682190000000  0.5072600000000  0.5537360000000 1.0
C      1  0.5538460000000  0.5318010000000  0.4926490000000 1.0
C      1  0.5073270000000  0.4461730000000  0.5317570000000 1.0
C      1  0.4927590000000  0.5537790000000  0.5317570000000 1.0
C      1  0.5073270000000  0.5537790000000  0.4681080000000 1.0
C      1  0.5318680000000  0.5072600000000  0.4461300000000 1.0
C      1  0.4682190000000  0.4926920000000  0.4461300000000 1.0
C      1  0.5318680000000  0.4926920000000  0.5537360000000 1.0
C      1  0.4462410000000  0.5318010000000  0.5072170000000 1.0
C      1  0.5538460000000  0.4681520000000  0.5072170000000 1.0
C      1  0.4462410000000  0.4681520000000  0.4926490000000 1.0
C      1  0.4591280000000  0.5447160000000  0.5255630000000 1.0
C      1  0.5256730000000  0.4590610000000  0.5446730000000 1.0
C      1  0.5447830000000  0.5256060000000  0.4590180000000 1.0
C      1  0.5409590000000  0.5447160000000  0.4743030000000 1.0
C      1  0.4591280000000  0.4552370000000  0.4743030000000 1.0
C      1  0.5409590000000  0.4552370000000  0.5255630000000 1.0
C      1  0.4744140000000  0.4590610000000  0.4551930000000 1.0
C      1  0.5256730000000  0.5408920000000  0.4551930000000 1.0
C      1  0.4744140000000  0.5408920000000  0.5446730000000 1.0
C      1  0.4553040000000  0.5256060000000  0.5408480000000 1.0
C      1  0.5447830000000  0.4743470000000  0.5408480000000 1.0
C      1  0.4553040000000  0.4743470000000  0.4590180000000 1.0
C      1  0.4591280000000  0.4552370000000  0.5255630000000 1.0
C      1  0.5256730000000  0.5408920000000  0.5446730000000 1.0
C      1  0.5447830000000  0.4743470000000  0.4590180000000 1.0
C      1  0.5409590000000  0.4552370000000  0.4743030000000 1.0
C      1  0.4591280000000  0.5447160000000  0.4743030000000 1.0
C      1  0.5409590000000  0.5447160000000  0.5255630000000 1.0
C      1  0.4744140000000  0.5408920000000  0.4551930000000 1.0
C      1  0.5256730000000  0.4590610000000  0.4551930000000 1.0
C      1  0.4744140000000  0.4590610000000  0.5446730000000 1.0
C      1  0.4553040000000  0.4743470000000  0.5408480000000 1.0
C      1  0.5447830000000  0.5256060000000  0.5408480000000 1.0
C      1  0.4553040000000  0.5256060000000  0.4590180000000 1.0
C      1  0.5471200000000  0.4803150000000  0.5135530000000 1.0
C      1  0.5136640000000  0.5470530000000  0.4802710000000 1.0
C      1  0.4803820000000  0.5135970000000  0.5470090000000 1.0
C      1  0.4529670000000  0.4803150000000  0.4863130000000 1.0
C      1  0.5471200000000  0.5196380000000  0.4863130000000 1.0
C      1  0.4529670000000  0.5196380000000  0.5135530000000 1.0
C      1  0.4864230000000  0.5470530000000  0.5195950000000 1.0
C      1  0.5136640000000  0.4529000000000  0.5195950000000 1.0
C      1  0.4864230000000  0.4529000000000  0.4802710000000 1.0
C      1  0.5197050000000  0.5135970000000  0.4528570000000 1.0
C      1  0.4803820000000  0.4863560000000  0.4528570000000 1.0
C      1  0.5197050000000  0.4863560000000  0.5470090000000 1.0
C      1  0.5471200000000  0.5196380000000  0.5135530000000 1.0
C      1  0.5136640000000  0.4529000000000  0.4802710000000 1.0
C      1  0.4803820000000  0.4863560000000  0.5470090000000 1.0
C      1  0.4529670000000  0.5196380000000  0.4863130000000 1.0
C      1  0.5471200000000  0.4803150000000  0.4863130000000 1.0
C      1  0.4529670000000  0.4803150000000  0.5135530000000 1.0
C      1  0.4864230000000  0.4529000000000  0.5195950000000 1.0
C      1  0.5136640000000  0.5470530000000  0.5195950000000 1.0
C      1  0.4864230000000  0.5470530000000  0.4802710000000 1.0
C      1  0.5197050000000  0.4863560000000  0.4528570000000 1.0
C      1  0.4803820000000  0.5135970000000  0.4528570000000 1.0
C      1  0.5197050000000  0.5135970000000  0.5470090000000 1.0
C      1  0.5519590000000  0.5071900000000  0.5070340000000 1.0
C      1  0.5071440000000  0.5518920000000  0.5071470000000 1.0
C      1  0.5072570000000  0.5070770000000  0.5518490000000 1.0
C      1  0.4481270000000  0.5071900000000  0.4928320000000 1.0
C      1  0.5519590000000  0.4927630000000  0.4928320000000 1.0
C      1  0.4481270000000  0.4927630000000  0.5070340000000 1.0
C      1  0.4929420000000  0.5518920000000  0.4927190000000 1.0
C      1  0.5071440000000  0.4480600000000  0.4927190000000 1.0
C      1  0.4929420000000  0.4480600000000  0.5071470000000 1.0
C      1  0.4928300000000  0.5070770000000  0.4480170000000 1.0
C      1  0.5072570000000  0.4928750000000  0.4480170000000 1.0
C      1  0.4928300000000  0.4928750000000  0.5518490000000 1.0
C      1  0.5519590000000  0.4927630000000  0.5070340000000 1.0
C      1  0.5071440000000  0.4480600000000  0.5071470000000 1.0
C      1  0.5072570000000  0.4928750000000  0.5518490000000 1.0
C      1  0.4481270000000  0.4927630000000  0.4928320000000 1.0
C      1  0.5519590000000  0.5071900000000  0.4928320000000 1.0
C      1  0.4481270000000  0.5071900000000  0.5070340000000 1.0
C      1  0.4929420000000  0.4480600000000  0.4927190000000 1.0
C      1  0.5071440000000  0.5518920000000  0.4927190000000 1.0
C      1  0.4929420000000  0.5518920000000  0.5071470000000 1.0
C      1  0.4928300000000  0.4928750000000  0.4480170000000 1.0
C      1  0.5072570000000  0.5070770000000  0.4480170000000 1.0
C      1  0.4928300000000  0.5070770000000  0.5518490000000 1.0
C      1  0.5074580000000  0.5454100000000  0.4346820000000 1.0
C      1  0.4347920000000  0.5073910000000  0.5453660000000 1.0
C      1  0.5454770000000  0.4347250000000  0.5073480000000 1.0
C      1  0.4926280000000  0.5454100000000  0.5651840000000 1.0
C      1  0.5074580000000  0.4545430000000  0.5651840000000 1.0
C      1  0.4926280000000  0.4545430000000  0.4346820000000 1.0
C      1  0.5652950000000  0.5073910000000  0.4545000000000 1.0
C      1  0.4347920000000  0.4925610000000  0.4545000000000 1.0
C      1  0.5652950000000  0.4925610000000  0.5453660000000 1.0
C      1  0.4546100000000  0.4347250000000  0.4925180000000 1.0
C      1  0.5454770000000  0.5652280000000  0.4925180000000 1.0
C      1  0.4546100000000  0.5652280000000  0.5073480000000 1.0
C      1  0.5074580000000  0.4545430000000  0.4346820000000 1.0
C      1  0.4347920000000  0.4925610000000  0.5453660000000 1.0
C      1  0.5454770000000  0.5652280000000  0.5073480000000 1.0
C      1  0.4926280000000  0.4545430000000  0.5651840000000 1.0
C      1  0.5074580000000  0.5454100000000  0.5651840000000 1.0
C      1  0.4926280000000  0.5454100000000  0.4346820000000 1.0
C      1  0.5652950000000  0.4925610000000  0.4545000000000 1.0
C      1  0.4347920000000  0.5073910000000  0.4545000000000 1.0
C      1  0.5652950000000  0.5073910000000  0.5453660000000 1.0
C      1  0.4546100000000  0.5652280000000  0.4925180000000 1.0
C      1  0.5454770000000  0.4347250000000  0.4925180000000 1.0
C      1  0.4546100000000  0.4347250000000  0.5073480000000 1.0
C      1  0.5384120000000  0.4616080000000  0.4615640000000 1.0
C      1  0.4616750000000  0.5383450000000  0.4615640000000 1.0
C      1  0.4616750000000  0.4616080000000  0.5383020000000 1.0
C      1  0.4616750000000  0.5383450000000  0.5383020000000 1.0
C      1  0.5384120000000  0.4616080000000  0.5383020000000 1.0
C      1  0.5384120000000  0.5383450000000  0.4615640000000 1.0
C      1  0.5384120000000  0.5383450000000  0.5383020000000 1.0
C      1  0.4616750000000  0.4616080000000  0.4615640000000 1.0
END
