TITL C-1892084-2856-13 2.56803202283388e-08 1000000 -2243.75283283403 0 0 320 (C1) n - 1
REM
REM in /nfs/bkarasulu/CARBON/AIRSS/Generating-Clusters/GAP-ML-2020/Higher-Symm/Selected-Sizes/TryA-Only_Ih-Symm/Larger-Clusters
REM
REM
REM
REM
REM
REM ./C.cell (2cf5181f0f1d4d5b12b972d32ad12063)
REM
REM compiler GCC version 9.2.1 20190827 (Red Hat 9.2.1-1)
REM options -cpp -mtune=generic -march=x86-64 -g -O0 -fpre-include=/usr/include/finclude/math-vector-fortran.h
REM seed 1412469143 1512197018 -184733384 -1708749110 1489311954 -213122946 504036254 -1275353765 -825611702 -1412930758 893062408 2022439288 2051740342 -1259356643 -2110884219 1853228555 -1616534689 1548901081 556406380 710448947 -411056423 278168462 -287066271 -71908207 -1785584655 1976125224 -1691953207 -337258683 1699389945 -837988821 -867529694 -458620602 1425601187
REM
CELL 1.54180  100.00000  100.00000  100.00000   90.00000   90.00000   90.00000
LATT -1
SFAC C  
C      1  0.4729130000000  0.5135810000000  0.5540240000000 1.0
C      1  0.5530340000000  0.4737240000000  0.5159110000000 1.0
C      1  0.5154870000000  0.5542340000000  0.4736840000000 1.0
C      1  0.5268070000000  0.4851630000000  0.5548860000000 1.0
C      1  0.5267400000000  0.5159020000000  0.4427160000000 1.0
C      1  0.4727260000000  0.4859960000000  0.4449230000000 1.0
C      1  0.4458620000000  0.5231600000000  0.5142830000000 1.0
C      1  0.4465820000000  0.4732060000000  0.4892190000000 1.0
C      1  0.5529600000000  0.5253590000000  0.4873380000000 1.0
C      1  0.4858930000000  0.4469520000000  0.4755040000000 1.0
C      1  0.4865750000000  0.5536870000000  0.5220710000000 1.0
C      1  0.5142480000000  0.4481310000000  0.5226440000000 1.0
C      1  0.4732830000000  0.5142990000000  0.4446250000000 1.0
C      1  0.5526230000000  0.4744590000000  0.4876340000000 1.0
C      1  0.5144670000000  0.5530820000000  0.5228670000000 1.0
C      1  0.5261400000000  0.4872890000000  0.4420840000000 1.0
C      1  0.5261510000000  0.5136380000000  0.5546470000000 1.0
C      1  0.4732980000000  0.4854490000000  0.5560640000000 1.0
C      1  0.4445060000000  0.5252900000000  0.4859780000000 1.0
C      1  0.4475170000000  0.4731760000000  0.5175090000000 1.0
C      1  0.5510070000000  0.5239570000000  0.5155720000000 1.0
C      1  0.4861910000000  0.4486610000000  0.5234190000000 1.0
C      1  0.4870330000000  0.5539150000000  0.4728720000000 1.0
C      1  0.5141490000000  0.4474850000000  0.4749350000000 1.0
C      1  0.5285680000000  0.5200460000000  0.4854140000000 1.0
C      1  0.4869680000000  0.5330410000000  0.5077470000000 1.0
C      1  0.5212350000000  0.4849550000000  0.5292240000000 1.0
C      1  0.4713330000000  0.4776060000000  0.4880830000000 1.0
C      1  0.4702270000000  0.5129260000000  0.5145050000000 1.0
C      1  0.5274490000000  0.4764380000000  0.5182850000000 1.0
C      1  0.5148410000000  0.4714220000000  0.5119400000000 1.0
C      1  0.5169260000000  0.5273750000000  0.4768120000000 1.0
C      1  0.4831430000000  0.4735200000000  0.4788650000000 1.0
C      1  0.4774090000000  0.5109570000000  0.5274490000000 1.0
C      1  0.4829790000000  0.4856460000000  0.4679470000000 1.0
C      1  0.5162840000000  0.5159780000000  0.4662540000000 1.0
C      1  0.5243830000000  0.5193110000000  0.5152670000000 1.0
C      1  0.4864870000000  0.5280510000000  0.4744110000000 1.0
C      1  0.5151770000000  0.4863340000000  0.4643090000000 1.0
C      1  0.4743360000000  0.4793290000000  0.5168910000000 1.0
C      1  0.4658900000000  0.5137670000000  0.4832320000000 1.0
C      1  0.5275640000000  0.4795440000000  0.4872270000000 1.0
C      1  0.5173490000000  0.4739880000000  0.4765820000000 1.0
C      1  0.5139780000000  0.5300260000000  0.5103040000000 1.0
C      1  0.4863070000000  0.4711860000000  0.5111830000000 1.0
C      1  0.4761030000000  0.5157700000000  0.4708250000000 1.0
C      1  0.4795540000000  0.4845850000000  0.5306070000000 1.0
C      1  0.5196190000000  0.5129020000000  0.5291360000000 1.0
C      1  0.4489030000000  0.5416810000000  0.4676960000000 1.0
C      1  0.4691250000000  0.4489510000000  0.5425600000000 1.0
C      1  0.5412990000000  0.4693710000000  0.4483610000000 1.0
C      1  0.5507490000000  0.4601190000000  0.4680820000000 1.0
C      1  0.5511940000000  0.5409890000000  0.5335820000000 1.0
C      1  0.4482240000000  0.4572630000000  0.5358100000000 1.0
C      1  0.5315480000000  0.5513250000000  0.5416720000000 1.0
C      1  0.5318830000000  0.4500980000000  0.4587970000000 1.0
C      1  0.4682790000000  0.5515910000000  0.4581440000000 1.0
C      1  0.4589750000000  0.5329450000000  0.4476660000000 1.0
C      1  0.4585360000000  0.4661380000000  0.5550110000000 1.0
C      1  0.5411470000000  0.5328910000000  0.5531510000000 1.0
C      1  0.4486080000000  0.5406740000000  0.5314380000000 1.0
C      1  0.4673350000000  0.4487900000000  0.4602750000000 1.0
C      1  0.5417490000000  0.4658360000000  0.5532810000000 1.0
C      1  0.5521480000000  0.4574930000000  0.5339760000000 1.0
C      1  0.5521840000000  0.5414900000000  0.4684740000000 1.0
C      1  0.4484030000000  0.4590390000000  0.4697630000000 1.0
C      1  0.5340950000000  0.5527650000000  0.4585180000000 1.0
C      1  0.5317170000000  0.4480850000000  0.5413060000000 1.0
C      1  0.4685610000000  0.5508990000000  0.5399810000000 1.0
C      1  0.4581840000000  0.5328590000000  0.5514700000000 1.0
C      1  0.4578860000000  0.4677900000000  0.4498810000000 1.0
C      1  0.5430020000000  0.5333240000000  0.4480860000000 1.0
C      1  0.4933280000000  0.5652520000000  0.5260470000000 1.0
C      1  0.5290740000000  0.4924300000000  0.5667490000000 1.0
C      1  0.5645330000000  0.5274170000000  0.4950720000000 1.0
C      1  0.5072280000000  0.4362480000000  0.5256650000000 1.0
C      1  0.5080840000000  0.5661010000000  0.4712640000000 1.0
C      1  0.4932180000000  0.4350250000000  0.4730050000000 1.0
C      1  0.4705570000000  0.5073490000000  0.5665170000000 1.0
C      1  0.4683560000000  0.4930080000000  0.4334870000000 1.0
C      1  0.5315040000000  0.5087140000000  0.4314240000000 1.0
C      1  0.4348840000000  0.4702110000000  0.4965820000000 1.0
C      1  0.4339810000000  0.5275300000000  0.5077890000000 1.0
C      1  0.5648670000000  0.4714540000000  0.5085630000000 1.0
C      1  0.4939630000000  0.5659860000000  0.4708790000000 1.0
C      1  0.5313220000000  0.4944850000000  0.4311250000000 1.0
C      1  0.5634810000000  0.5262530000000  0.5092110000000 1.0
C      1  0.5073200000000  0.4353160000000  0.4729430000000 1.0
C      1  0.5076220000000  0.5649760000000  0.5261210000000 1.0
C      1  0.4929220000000  0.4365340000000  0.5261540000000 1.0
C      1  0.4692080000000  0.5070780000000  0.4330150000000 1.0
C      1  0.4706430000000  0.4932330000000  0.5674710000000 1.0
C      1  0.5287690000000  0.5066310000000  0.5666270000000 1.0
C      1  0.4353560000000  0.4705020000000  0.5106750000000 1.0
C      1  0.4335680000000  0.5294870000000  0.4936720000000 1.0
C      1  0.5647930000000  0.4718930000000  0.4944100000000 1.0
C      1  0.4772490000000  0.5517220000000  0.5517580000000 1.0
C      1  0.5529240000000  0.4750370000000  0.5538500000000 1.0
C      1  0.5532920000000  0.5527860000000  0.4773180000000 1.0
C      1  0.5225070000000  0.4473160000000  0.5525360000000 1.0
C      1  0.5251380000000  0.5535190000000  0.4472510000000 1.0
C      1  0.4761760000000  0.4483640000000  0.4489750000000 1.0
C      1  0.4468070000000  0.5238760000000  0.5522660000000 1.0
C      1  0.4465810000000  0.4768150000000  0.4504970000000 1.0
C      1  0.5543680000000  0.5241840000000  0.4485310000000 1.0
C      1  0.4477890000000  0.4473710000000  0.4781200000000 1.0
C      1  0.4482530000000  0.5519310000000  0.5221400000000 1.0
C      1  0.5523140000000  0.4469840000000  0.5241030000000 1.0
C      1  0.4771570000000  0.5522370000000  0.4467580000000 1.0
C      1  0.5530700000000  0.4779710000000  0.4488500000000 1.0
C      1  0.5521870000000  0.5519530000000  0.5242110000000 1.0
C      1  0.5228100000000  0.4496110000000  0.4477470000000 1.0
C      1  0.5222060000000  0.5518470000000  0.5528890000000 1.0
C      1  0.4782050000000  0.4477870000000  0.5537380000000 1.0
C      1  0.4474440000000  0.5242600000000  0.4475480000000 1.0
C      1  0.4472650000000  0.4754000000000  0.5552420000000 1.0
C      1  0.5522530000000  0.5234570000000  0.5533790000000 1.0
C      1  0.4482390000000  0.4466300000000  0.5260050000000 1.0
C      1  0.4486290000000  0.5532550000000  0.4763380000000 1.0
C      1  0.5519440000000  0.4483760000000  0.4762660000000 1.0
C      1  0.4802260000000  0.5083420000000  0.5044460000000 1.0
C      1  0.5076780000000  0.4843390000000  0.5093260000000 1.0
C      1  0.5128580000000  0.5067170000000  0.4771380000000 1.0
C      1  0.5171980000000  0.4953200000000  0.5037070000000 1.0
C      1  0.5254130000000  0.5061100000000  0.4842520000000 1.0
C      1  0.4723440000000  0.4906740000000  0.4942950000000 1.0
C      1  0.4905850000000  0.5207070000000  0.5012190000000 1.0
C      1  0.4937500000000  0.4817440000000  0.4874910000000 1.0
C      1  0.5071410000000  0.5189360000000  0.4858680000000 1.0
C      1  0.4915820000000  0.4940070000000  0.4762550000000 1.0
C      1  0.4921210000000  0.5054290000000  0.5277200000000 1.0
C      1  0.5070290000000  0.4902480000000  0.5238720000000 1.0
C      1  0.4748220000000  0.5046630000000  0.4903500000000 1.0
C      1  0.5073220000000  0.4823050000000  0.4832110000000 1.0
C      1  0.5072620000000  0.5060000000000  0.5228940000000 1.0
C      1  0.5257170000000  0.4939710000000  0.4923940000000 1.0
C      1  0.5135690000000  0.5086450000000  0.5090150000000 1.0
C      1  0.4807590000000  0.4913680000000  0.5060310000000 1.0
C      1  0.4924620000000  0.5196380000000  0.4850240000000 1.0
C      1  0.4929970000000  0.4822660000000  0.5029250000000 1.0
C      1  0.5065650000000  0.5198810000000  0.5014880000000 1.0
C      1  0.4928090000000  0.4916150000000  0.5296800000000 1.0
C      1  0.4854800000000  0.5070770000000  0.4801850000000 1.0
C      1  0.5065930000000  0.4938740000000  0.4738390000000 1.0
C      1  0.4473270000000  0.4837010000000  0.4268440000000 1.0
C      1  0.4245700000000  0.4510240000000  0.4860450000000 1.0
C      1  0.4833450000000  0.4252200000000  0.4531740000000 1.0
C      1  0.5528750000000  0.5181500000000  0.4246250000000 1.0
C      1  0.5488430000000  0.4827970000000  0.5769910000000 1.0
C      1  0.4506890000000  0.5175270000000  0.5756970000000 1.0
C      1  0.5758840000000  0.5469690000000  0.4857320000000 1.0
C      1  0.5753880000000  0.4513830000000  0.5172400000000 1.0
C      1  0.4248500000000  0.5479920000000  0.5175620000000 1.0
C      1  0.5177570000000  0.5766030000000  0.4518310000000 1.0
C      1  0.5165420000000  0.4250390000000  0.5456120000000 1.0
C      1  0.4832300000000  0.5747100000000  0.5464660000000 1.0
C      1  0.4512380000000  0.4839320000000  0.5780780000000 1.0
C      1  0.4251000000000  0.4505190000000  0.5197950000000 1.0
C      1  0.4840240000000  0.4257470000000  0.5464540000000 1.0
C      1  0.5485000000000  0.5164440000000  0.5765070000000 1.0
C      1  0.5519640000000  0.4840250000000  0.4249020000000 1.0
C      1  0.4492940000000  0.5173370000000  0.4238930000000 1.0
C      1  0.5741780000000  0.5454870000000  0.5190160000000 1.0
C      1  0.5751450000000  0.4527390000000  0.4836630000000 1.0
C      1  0.4251740000000  0.5503610000000  0.4838060000000 1.0
C      1  0.5164250000000  0.5743930000000  0.5469240000000 1.0
C      1  0.5169350000000  0.4270510000000  0.4531050000000 1.0
C      1  0.4841700000000  0.5754560000000  0.4510060000000 1.0
C      1  0.4705070000000  0.4717100000000  0.4454920000000 1.0
C      1  0.4456960000000  0.4718270000000  0.4745760000000 1.0
C      1  0.4715290000000  0.4458140000000  0.4732680000000 1.0
C      1  0.5301020000000  0.5300240000000  0.4436070000000 1.0
C      1  0.5288600000000  0.4705920000000  0.5557730000000 1.0
C      1  0.4710930000000  0.5282650000000  0.5543380000000 1.0
C      1  0.5542860000000  0.5283570000000  0.4728090000000 1.0
C      1  0.5541280000000  0.4707830000000  0.5301270000000 1.0
C      1  0.4461490000000  0.5270360000000  0.5283010000000 1.0
C      1  0.5298870000000  0.5556220000000  0.4715770000000 1.0
C      1  0.5282010000000  0.4474500000000  0.5275090000000 1.0
C      1  0.4724740000000  0.5529430000000  0.5264380000000 1.0
C      1  0.4714860000000  0.4708910000000  0.5575390000000 1.0
C      1  0.4462780000000  0.4705430000000  0.5317450000000 1.0
C      1  0.4724170000000  0.4484060000000  0.5286850000000 1.0
C      1  0.5281360000000  0.5282660000000  0.5553620000000 1.0
C      1  0.5287370000000  0.4729590000000  0.4433170000000 1.0
C      1  0.4718690000000  0.5287960000000  0.4439840000000 1.0
C      1  0.5519280000000  0.5274910000000  0.5296770000000 1.0
C      1  0.5534690000000  0.4728630000000  0.4728980000000 1.0
C      1  0.4450320000000  0.5288450000000  0.4716570000000 1.0
C      1  0.5282230000000  0.5529090000000  0.5279420000000 1.0
C      1  0.5283090000000  0.4469260000000  0.4719560000000 1.0
C      1  0.4724980000000  0.5546940000000  0.4710240000000 1.0
C      1  0.4933550000000  0.4643750000000  0.4428080000000 1.0
C      1  0.4420880000000  0.4946810000000  0.4657860000000 1.0
C      1  0.4633050000000  0.4409690000000  0.4953540000000 1.0
C      1  0.5073210000000  0.5379100000000  0.4410880000000 1.0
C      1  0.5064990000000  0.4635550000000  0.5623200000000 1.0
C      1  0.4934040000000  0.5353700000000  0.5609240000000 1.0
C      1  0.5619120000000  0.5068370000000  0.4643690000000 1.0
C      1  0.5568200000000  0.4931470000000  0.5377540000000 1.0
C      1  0.4417270000000  0.5051650000000  0.5372540000000 1.0
C      1  0.5375260000000  0.5594400000000  0.4941780000000 1.0
C      1  0.5364210000000  0.4419430000000  0.5059950000000 1.0
C      1  0.4643180000000  0.5603340000000  0.5051390000000 1.0
C      1  0.4943050000000  0.4637500000000  0.5629460000000 1.0
C      1  0.4417700000000  0.4929440000000  0.5385670000000 1.0
C      1  0.4637900000000  0.4415830000000  0.5076020000000 1.0
C      1  0.5055980000000  0.5354490000000  0.5611360000000 1.0
C      1  0.5055540000000  0.4656960000000  0.4423270000000 1.0
C      1  0.4950370000000  0.5370160000000  0.4410290000000 1.0
C      1  0.5565350000000  0.5053770000000  0.5371670000000 1.0
C      1  0.5614970000000  0.4946430000000  0.4649390000000 1.0
C      1  0.4418340000000  0.5066320000000  0.4630210000000 1.0
C      1  0.5364470000000  0.5587390000000  0.5063570000000 1.0
C      1  0.5367360000000  0.4415360000000  0.4937370000000 1.0
C      1  0.4642750000000  0.5613590000000  0.4929950000000 1.0
C      1  0.5388220000000  0.4442450000000  0.4806080000000 1.0
C      1  0.4815900000000  0.5389080000000  0.4429800000000 1.0
C      1  0.4443200000000  0.4798800000000  0.5417460000000 1.0
C      1  0.4620590000000  0.5578180000000  0.4798600000000 1.0
C      1  0.4616280000000  0.4449990000000  0.5206010000000 1.0
C      1  0.5389310000000  0.5552640000000  0.5194110000000 1.0
C      1  0.5188380000000  0.4630240000000  0.4437970000000 1.0
C      1  0.5187070000000  0.5383860000000  0.5575520000000 1.0
C      1  0.4812400000000  0.4609540000000  0.5593740000000 1.0
C      1  0.5543100000000  0.5185440000000  0.5398820000000 1.0
C      1  0.5569350000000  0.4817380000000  0.4625550000000 1.0
C      1  0.4441660000000  0.5198000000000  0.4609790000000 1.0
C      1  0.5388900000000  0.4446500000000  0.5191040000000 1.0
C      1  0.4804460000000  0.5383640000000  0.5568340000000 1.0
C      1  0.4440130000000  0.4812690000000  0.4642360000000 1.0
C      1  0.4617290000000  0.5558660000000  0.5180310000000 1.0
C      1  0.4611170000000  0.4434990000000  0.4822490000000 1.0
C      1  0.5400800000000  0.5574360000000  0.4809700000000 1.0
C      1  0.5193360000000  0.4605820000000  0.5579230000000 1.0
C      1  0.5206330000000  0.5403380000000  0.4432650000000 1.0
C      1  0.4802310000000  0.4617070000000  0.4450290000000 1.0
C      1  0.5580180000000  0.5199450000000  0.4621040000000 1.0
C      1  0.5555190000000  0.4799020000000  0.5404250000000 1.0
C      1  0.4440560000000  0.5185480000000  0.5390680000000 1.0
C      1  0.4597210000000  0.4735140000000  0.4960080000000 1.0
C      1  0.4923990000000  0.4602180000000  0.4762410000000 1.0
C      1  0.4762590000000  0.4928520000000  0.4574190000000 1.0
C      1  0.5398110000000  0.5233140000000  0.4938830000000 1.0
C      1  0.5399050000000  0.4752470000000  0.5098300000000 1.0
C      1  0.4576140000000  0.5176920000000  0.5075600000000 1.0
C      1  0.5091560000000  0.5410750000000  0.4743320000000 1.0
C      1  0.5077580000000  0.4594740000000  0.5161270000000 1.0
C      1  0.4932980000000  0.5431550000000  0.5144400000000 1.0
C      1  0.5211980000000  0.5094230000000  0.4545110000000 1.0
C      1  0.5246220000000  0.4918030000000  0.5420070000000 1.0
C      1  0.4737560000000  0.5060030000000  0.5414920000000 1.0
C      1  0.4602130000000  0.4750520000000  0.5108550000000 1.0
C      1  0.4928990000000  0.4596460000000  0.5162430000000 1.0
C      1  0.4743090000000  0.4913720000000  0.5427750000000 1.0
C      1  0.5385640000000  0.5212150000000  0.5085510000000 1.0
C      1  0.5395910000000  0.4747880000000  0.4947660000000 1.0
C      1  0.4559880000000  0.5188670000000  0.4918640000000 1.0
C      1  0.5083580000000  0.5421030000000  0.5154390000000 1.0
C      1  0.5073710000000  0.4605030000000  0.4755510000000 1.0
C      1  0.4941520000000  0.5407910000000  0.4730680000000 1.0
C      1  0.5241230000000  0.5066780000000  0.5418130000000 1.0
C      1  0.5211420000000  0.4938690000000  0.4539270000000 1.0
C      1  0.4747420000000  0.5078040000000  0.4575110000000 1.0
C      1  0.5649400000000  0.5550590000000  0.5203000000000 1.0
C      1  0.5176370000000  0.5644790000000  0.5557570000000 1.0
C      1  0.5555930000000  0.5188180000000  0.5656390000000 1.0
C      1  0.4359800000000  0.4430960000000  0.5214470000000 1.0
C      1  0.4363420000000  0.5567440000000  0.4811310000000 1.0
C      1  0.5644780000000  0.4456880000000  0.4806640000000 1.0
C      1  0.4825410000000  0.4349400000000  0.5559740000000 1.0
C      1  0.4815750000000  0.5647780000000  0.4438490000000 1.0
C      1  0.5186700000000  0.4369350000000  0.4446100000000 1.0
C      1  0.4443830000000  0.4805910000000  0.5674040000000 1.0
C      1  0.4433560000000  0.5200640000000  0.4353560000000 1.0
C      1  0.5575630000000  0.4820180000000  0.4366250000000 1.0
C      1  0.5656600000000  0.5545800000000  0.4825850000000 1.0
C      1  0.5205170000000  0.5659950000000  0.4445980000000 1.0
C      1  0.5586770000000  0.5197750000000  0.4363810000000 1.0
C      1  0.4354050000000  0.4444670000000  0.4827010000000 1.0
C      1  0.4356990000000  0.5557870000000  0.5183290000000 1.0
C      1  0.5646160000000  0.4439990000000  0.5192960000000 1.0
C      1  0.4806330000000  0.4359160000000  0.4460260000000 1.0
C      1  0.4814690000000  0.5644140000000  0.5546950000000 1.0
C      1  0.5179760000000  0.4345980000000  0.5548530000000 1.0
C      1  0.4419750000000  0.4813760000000  0.4385420000000 1.0
C      1  0.4436970000000  0.5195760000000  0.5647620000000 1.0
C      1  0.5556580000000  0.4799160000000  0.5661240000000 1.0
C      1  0.4628720000000  0.5133240000000  0.5770350000000 1.0
C      1  0.5759160000000  0.4637980000000  0.5136030000000 1.0
C      1  0.5133740000000  0.5771920000000  0.4640000000000 1.0
C      1  0.5367110000000  0.4873380000000  0.5776680000000 1.0
C      1  0.5406860000000  0.5147240000000  0.4222240000000 1.0
C      1  0.4593980000000  0.4873150000000  0.4238810000000 1.0
C      1  0.4242490000000  0.5355000000000  0.5147690000000 1.0
C      1  0.4239260000000  0.4627880000000  0.4914330000000 1.0
C      1  0.5757380000000  0.5349680000000  0.4905000000000 1.0
C      1  0.4877620000000  0.4242440000000  0.4652740000000 1.0
C      1  0.4870010000000  0.5752260000000  0.5342760000000 1.0
C      1  0.5133390000000  0.4256290000000  0.5332710000000 1.0
C      1  0.4613800000000  0.5128740000000  0.4226650000000 1.0
C      1  0.5756600000000  0.4646780000000  0.4886520000000 1.0
C      1  0.5137490000000  0.5750190000000  0.5344650000000 1.0
C      1  0.5402070000000  0.4882290000000  0.4217820000000 1.0
C      1  0.5363500000000  0.5120830000000  0.5774640000000 1.0
C      1  0.4633360000000  0.4885240000000  0.5787500000000 1.0
C      1  0.4237930000000  0.5384760000000  0.4885140000000 1.0
C      1  0.4245060000000  0.4629890000000  0.5163900000000 1.0
C      1  0.5745220000000  0.5330960000000  0.5157370000000 1.0
C      1  0.4868770000000  0.4260740000000  0.5340420000000 1.0
C      1  0.4884960000000  0.5767860000000  0.4631370000000 1.0
C      1  0.5133250000000  0.4245450000000  0.4651760000000 1.0
C      1  0.4574740000000  0.5427440000000  0.5418880000000 1.0
C      1  0.5429900000000  0.4556800000000  0.5441080000000 1.0
C      1  0.4580060000000  0.5426810000000  0.4572260000000 1.0
C      1  0.5419190000000  0.4592410000000  0.4576380000000 1.0
C      1  0.5439670000000  0.5433390000000  0.4575410000000 1.0
C      1  0.4572050000000  0.4578770000000  0.4592950000000 1.0
C      1  0.5425630000000  0.5432640000000  0.5441510000000 1.0
C      1  0.4575500000000  0.4558850000000  0.5458270000000 1.0
END
