TITL C-1887015-2101-49 5.87486933507962e-06 1000000 -3467.10016909147 0 0 480 (Th) n - 1
REM
REM in /nfs/bkarasulu/CARBON/AIRSS/Generating-Clusters/GAP-ML-2020/Higher-Symm/Selected-Sizes/TryA-Only_Ih-Symm/Larger-Clusters
REM
REM
REM
REM
REM
REM ./C.cell (2cf5181f0f1d4d5b12b972d32ad12063)
REM
REM compiler GCC version 9.2.1 20190827 (Red Hat 9.2.1-1)
REM options -cpp -mtune=generic -march=x86-64 -g -O0 -fpre-include=/usr/include/finclude/math-vector-fortran.h
REM seed 1748225305 -524606656 284216146 47701381 80463916 -959488524 -1057704397 -212649405 1052370752 -2112295030 1713915906 1062829212 -556419675 1752147550 -1623403168 -286691558 20340155 -1899859595 -1468231136 -520254719 -1249032816 -1826316503 -1778031178 530463273 1119268968 328674677 603511813 -816252755 -1077987078 -531888899 -124594851 -1869756249 -399129603
REM
CELL 1.54180  100.00000  100.00000  100.00000   90.00000   90.00000   90.00000
LATT -1
SFAC C  
C      1  0.5283990000000  0.4930280000000  0.5467860000000 1.0
C      1  0.5467860000000  0.5283990000000  0.4930280000000 1.0
C      1  0.4930280000000  0.5467860000000  0.5283990000000 1.0
C      1  0.4716010000000  0.5069720000000  0.5467860000000 1.0
C      1  0.4716010000000  0.4930280000000  0.4532140000000 1.0
C      1  0.5283990000000  0.5069720000000  0.4532140000000 1.0
C      1  0.4532140000000  0.4716010000000  0.4930280000000 1.0
C      1  0.4532140000000  0.5283990000000  0.5069720000000 1.0
C      1  0.5467860000000  0.4716010000000  0.5069720000000 1.0
C      1  0.5069720000000  0.4532140000000  0.5283990000000 1.0
C      1  0.5069720000000  0.5467860000000  0.4716010000000 1.0
C      1  0.4930280000000  0.4532140000000  0.4716010000000 1.0
C      1  0.5283990000000  0.4930280000000  0.4532140000000 1.0
C      1  0.5467860000000  0.5283990000000  0.5069720000000 1.0
C      1  0.4930280000000  0.5467860000000  0.4716010000000 1.0
C      1  0.4716010000000  0.5069720000000  0.4532140000000 1.0
C      1  0.4716010000000  0.4930280000000  0.5467860000000 1.0
C      1  0.5283990000000  0.5069720000000  0.5467860000000 1.0
C      1  0.4532140000000  0.4716010000000  0.5069720000000 1.0
C      1  0.4532140000000  0.5283990000000  0.4930280000000 1.0
C      1  0.5467860000000  0.4716010000000  0.4930280000000 1.0
C      1  0.5069720000000  0.4532140000000  0.4716010000000 1.0
C      1  0.5069720000000  0.5467860000000  0.5283990000000 1.0
C      1  0.4930280000000  0.4532140000000  0.5283990000000 1.0
C      1  0.4272590000000  0.4730420000000  0.5344430000000 1.0
C      1  0.5344430000000  0.4272590000000  0.4730420000000 1.0
C      1  0.4730420000000  0.5344430000000  0.4272590000000 1.0
C      1  0.5727410000000  0.5269580000000  0.5344430000000 1.0
C      1  0.5727410000000  0.4730420000000  0.4655570000000 1.0
C      1  0.4272590000000  0.5269580000000  0.4655570000000 1.0
C      1  0.4655570000000  0.5727410000000  0.4730420000000 1.0
C      1  0.4655570000000  0.4272590000000  0.5269580000000 1.0
C      1  0.5344430000000  0.5727410000000  0.5269580000000 1.0
C      1  0.5269580000000  0.4655570000000  0.4272590000000 1.0
C      1  0.5269580000000  0.5344430000000  0.5727410000000 1.0
C      1  0.4730420000000  0.4655570000000  0.5727410000000 1.0
C      1  0.4272590000000  0.4730420000000  0.4655570000000 1.0
C      1  0.5344430000000  0.4272590000000  0.5269580000000 1.0
C      1  0.4730420000000  0.5344430000000  0.5727410000000 1.0
C      1  0.5727410000000  0.5269580000000  0.4655570000000 1.0
C      1  0.5727410000000  0.4730420000000  0.5344430000000 1.0
C      1  0.4272590000000  0.5269580000000  0.5344430000000 1.0
C      1  0.4655570000000  0.5727410000000  0.5269580000000 1.0
C      1  0.4655570000000  0.4272590000000  0.4730420000000 1.0
C      1  0.5344430000000  0.5727410000000  0.4730420000000 1.0
C      1  0.5269580000000  0.4655570000000  0.5727410000000 1.0
C      1  0.5269580000000  0.5344430000000  0.4272590000000 1.0
C      1  0.4730420000000  0.4655570000000  0.4272590000000 1.0
C      1  0.4264790000000  0.4920550000000  0.5072450000000 1.0
C      1  0.5072450000000  0.4264790000000  0.4920550000000 1.0
C      1  0.4920550000000  0.5072450000000  0.4264790000000 1.0
C      1  0.5735210000000  0.5079450000000  0.5072450000000 1.0
C      1  0.5735210000000  0.4920550000000  0.4927550000000 1.0
C      1  0.4264790000000  0.5079450000000  0.4927550000000 1.0
C      1  0.4927550000000  0.5735210000000  0.4920550000000 1.0
C      1  0.4927550000000  0.4264790000000  0.5079450000000 1.0
C      1  0.5072450000000  0.5735210000000  0.5079450000000 1.0
C      1  0.5079450000000  0.4927550000000  0.4264790000000 1.0
C      1  0.5079450000000  0.5072450000000  0.5735210000000 1.0
C      1  0.4920550000000  0.4927550000000  0.5735210000000 1.0
C      1  0.4264790000000  0.4920550000000  0.4927550000000 1.0
C      1  0.5072450000000  0.4264790000000  0.5079450000000 1.0
C      1  0.4920550000000  0.5072450000000  0.5735210000000 1.0
C      1  0.5735210000000  0.5079450000000  0.4927550000000 1.0
C      1  0.5735210000000  0.4920550000000  0.5072450000000 1.0
C      1  0.4264790000000  0.5079450000000  0.5072450000000 1.0
C      1  0.4927550000000  0.5735210000000  0.5079450000000 1.0
C      1  0.4927550000000  0.4264790000000  0.4920550000000 1.0
C      1  0.5072450000000  0.5735210000000  0.4920550000000 1.0
C      1  0.5079450000000  0.4927550000000  0.5735210000000 1.0
C      1  0.5079450000000  0.5072450000000  0.4264790000000 1.0
C      1  0.4920550000000  0.4927550000000  0.4264790000000 1.0
C      1  0.4738060000000  0.5394650000000  0.5153080000000 1.0
C      1  0.5153080000000  0.4738060000000  0.5394650000000 1.0
C      1  0.5394650000000  0.5153080000000  0.4738060000000 1.0
C      1  0.5261940000000  0.4605350000000  0.5153080000000 1.0
C      1  0.5261940000000  0.5394650000000  0.4846920000000 1.0
C      1  0.4738060000000  0.4605350000000  0.4846920000000 1.0
C      1  0.4846920000000  0.5261940000000  0.5394650000000 1.0
C      1  0.4846920000000  0.4738060000000  0.4605350000000 1.0
C      1  0.5153080000000  0.5261940000000  0.4605350000000 1.0
C      1  0.4605350000000  0.4846920000000  0.4738060000000 1.0
C      1  0.4605350000000  0.5153080000000  0.5261940000000 1.0
C      1  0.5394650000000  0.4846920000000  0.5261940000000 1.0
C      1  0.4738060000000  0.5394650000000  0.4846920000000 1.0
C      1  0.5153080000000  0.4738060000000  0.4605350000000 1.0
C      1  0.5394650000000  0.5153080000000  0.5261940000000 1.0
C      1  0.5261940000000  0.4605350000000  0.4846920000000 1.0
C      1  0.5261940000000  0.5394650000000  0.5153080000000 1.0
C      1  0.4738060000000  0.4605350000000  0.5153080000000 1.0
C      1  0.4846920000000  0.5261940000000  0.4605350000000 1.0
C      1  0.4846920000000  0.4738060000000  0.5394650000000 1.0
C      1  0.5153080000000  0.5261940000000  0.5394650000000 1.0
C      1  0.4605350000000  0.4846920000000  0.5261940000000 1.0
C      1  0.4605350000000  0.5153080000000  0.4738060000000 1.0
C      1  0.5394650000000  0.4846920000000  0.4738060000000 1.0
C      1  0.5540890000000  0.5392840000000  0.4646070000000 1.0
C      1  0.4646070000000  0.5540890000000  0.5392840000000 1.0
C      1  0.5392840000000  0.4646070000000  0.5540890000000 1.0
C      1  0.4459110000000  0.4607160000000  0.4646070000000 1.0
C      1  0.4459110000000  0.5392840000000  0.5353930000000 1.0
C      1  0.5540890000000  0.4607160000000  0.5353930000000 1.0
C      1  0.5353930000000  0.4459110000000  0.5392840000000 1.0
C      1  0.5353930000000  0.5540890000000  0.4607160000000 1.0
C      1  0.4646070000000  0.4459110000000  0.4607160000000 1.0
C      1  0.4607160000000  0.5353930000000  0.5540890000000 1.0
C      1  0.4607160000000  0.4646070000000  0.4459110000000 1.0
C      1  0.5392840000000  0.5353930000000  0.4459110000000 1.0
C      1  0.5540890000000  0.5392840000000  0.5353930000000 1.0
C      1  0.4646070000000  0.5540890000000  0.4607160000000 1.0
C      1  0.5392840000000  0.4646070000000  0.4459110000000 1.0
C      1  0.4459110000000  0.4607160000000  0.5353930000000 1.0
C      1  0.4459110000000  0.5392840000000  0.4646070000000 1.0
C      1  0.5540890000000  0.4607160000000  0.4646070000000 1.0
C      1  0.5353930000000  0.4459110000000  0.4607160000000 1.0
C      1  0.5353930000000  0.5540890000000  0.5392840000000 1.0
C      1  0.4646070000000  0.4459110000000  0.5392840000000 1.0
C      1  0.4607160000000  0.5353930000000  0.4459110000000 1.0
C      1  0.4607160000000  0.4646070000000  0.5540890000000 1.0
C      1  0.5392840000000  0.5353930000000  0.5540890000000 1.0
C      1  0.4235480000000  0.4930390000000  0.4630340000000 1.0
C      1  0.4630340000000  0.4235480000000  0.4930390000000 1.0
C      1  0.4930390000000  0.4630340000000  0.4235480000000 1.0
C      1  0.5764520000000  0.5069610000000  0.4630340000000 1.0
C      1  0.5764520000000  0.4930390000000  0.5369660000000 1.0
C      1  0.4235480000000  0.5069610000000  0.5369660000000 1.0
C      1  0.5369660000000  0.5764520000000  0.4930390000000 1.0
C      1  0.5369660000000  0.4235480000000  0.5069610000000 1.0
C      1  0.4630340000000  0.5764520000000  0.5069610000000 1.0
C      1  0.5069610000000  0.5369660000000  0.4235480000000 1.0
C      1  0.5069610000000  0.4630340000000  0.5764520000000 1.0
C      1  0.4930390000000  0.5369660000000  0.5764520000000 1.0
C      1  0.4235480000000  0.4930390000000  0.5369660000000 1.0
C      1  0.4630340000000  0.4235480000000  0.5069610000000 1.0
C      1  0.4930390000000  0.4630340000000  0.5764520000000 1.0
C      1  0.5764520000000  0.5069610000000  0.5369660000000 1.0
C      1  0.5764520000000  0.4930390000000  0.4630340000000 1.0
C      1  0.4235480000000  0.5069610000000  0.4630340000000 1.0
C      1  0.5369660000000  0.5764520000000  0.5069610000000 1.0
C      1  0.5369660000000  0.4235480000000  0.4930390000000 1.0
C      1  0.4630340000000  0.5764520000000  0.4930390000000 1.0
C      1  0.5069610000000  0.5369660000000  0.5764520000000 1.0
C      1  0.5069610000000  0.4630340000000  0.4235480000000 1.0
C      1  0.4930390000000  0.5369660000000  0.4235480000000 1.0
C      1  0.5143210000000  0.5691800000000  0.5407020000000 1.0
C      1  0.5407020000000  0.5143210000000  0.5691800000000 1.0
C      1  0.5691800000000  0.5407020000000  0.5143210000000 1.0
C      1  0.4856790000000  0.4308200000000  0.5407020000000 1.0
C      1  0.4856790000000  0.5691800000000  0.4592980000000 1.0
C      1  0.5143210000000  0.4308200000000  0.4592980000000 1.0
C      1  0.4592980000000  0.4856790000000  0.5691800000000 1.0
C      1  0.4592980000000  0.5143210000000  0.4308200000000 1.0
C      1  0.5407020000000  0.4856790000000  0.4308200000000 1.0
C      1  0.4308200000000  0.4592980000000  0.5143210000000 1.0
C      1  0.4308200000000  0.5407020000000  0.4856790000000 1.0
C      1  0.5691800000000  0.4592980000000  0.4856790000000 1.0
C      1  0.5143210000000  0.5691800000000  0.4592980000000 1.0
C      1  0.5407020000000  0.5143210000000  0.4308200000000 1.0
C      1  0.5691800000000  0.5407020000000  0.4856790000000 1.0
C      1  0.4856790000000  0.4308200000000  0.4592980000000 1.0
C      1  0.4856790000000  0.5691800000000  0.5407020000000 1.0
C      1  0.5143210000000  0.4308200000000  0.5407020000000 1.0
C      1  0.4592980000000  0.4856790000000  0.4308200000000 1.0
C      1  0.4592980000000  0.5143210000000  0.5691800000000 1.0
C      1  0.5407020000000  0.4856790000000  0.5691800000000 1.0
C      1  0.4308200000000  0.4592980000000  0.4856790000000 1.0
C      1  0.4308200000000  0.5407020000000  0.5143210000000 1.0
C      1  0.5691800000000  0.4592980000000  0.5143210000000 1.0
C      1  0.4692420000000  0.4538470000000  0.4503040000000 1.0
C      1  0.4503040000000  0.4692420000000  0.4538470000000 1.0
C      1  0.4538470000000  0.4503040000000  0.4692420000000 1.0
C      1  0.5307580000000  0.5461530000000  0.4503040000000 1.0
C      1  0.5307580000000  0.4538470000000  0.5496960000000 1.0
C      1  0.4692420000000  0.5461530000000  0.5496960000000 1.0
C      1  0.5496960000000  0.5307580000000  0.4538470000000 1.0
C      1  0.5496960000000  0.4692420000000  0.5461530000000 1.0
C      1  0.4503040000000  0.5307580000000  0.5461530000000 1.0
C      1  0.5461530000000  0.5496960000000  0.4692420000000 1.0
C      1  0.5461530000000  0.4503040000000  0.5307580000000 1.0
C      1  0.4538470000000  0.5496960000000  0.5307580000000 1.0
C      1  0.4692420000000  0.4538470000000  0.5496960000000 1.0
C      1  0.4503040000000  0.4692420000000  0.5461530000000 1.0
C      1  0.4538470000000  0.4503040000000  0.5307580000000 1.0
C      1  0.5307580000000  0.5461530000000  0.5496960000000 1.0
C      1  0.5307580000000  0.4538470000000  0.4503040000000 1.0
C      1  0.4692420000000  0.5461530000000  0.4503040000000 1.0
C      1  0.5496960000000  0.5307580000000  0.5461530000000 1.0
C      1  0.5496960000000  0.4692420000000  0.4538470000000 1.0
C      1  0.4503040000000  0.5307580000000  0.4538470000000 1.0
C      1  0.5461530000000  0.5496960000000  0.5307580000000 1.0
C      1  0.5461530000000  0.4503040000000  0.4692420000000 1.0
C      1  0.4538470000000  0.5496960000000  0.4692420000000 1.0
C      1  0.5660270000000  0.5371890000000  0.4719770000000 1.0
C      1  0.4719770000000  0.5660270000000  0.5371890000000 1.0
C      1  0.5371890000000  0.4719770000000  0.5660270000000 1.0
C      1  0.4339730000000  0.4628110000000  0.4719770000000 1.0
C      1  0.4339730000000  0.5371890000000  0.5280230000000 1.0
C      1  0.5660270000000  0.4628110000000  0.5280230000000 1.0
C      1  0.5280230000000  0.4339730000000  0.5371890000000 1.0
C      1  0.5280230000000  0.5660270000000  0.4628110000000 1.0
C      1  0.4719770000000  0.4339730000000  0.4628110000000 1.0
C      1  0.4628110000000  0.5280230000000  0.5660270000000 1.0
C      1  0.4628110000000  0.4719770000000  0.4339730000000 1.0
C      1  0.5371890000000  0.5280230000000  0.4339730000000 1.0
C      1  0.5660270000000  0.5371890000000  0.5280230000000 1.0
C      1  0.4719770000000  0.5660270000000  0.4628110000000 1.0
C      1  0.5371890000000  0.4719770000000  0.4339730000000 1.0
C      1  0.4339730000000  0.4628110000000  0.5280230000000 1.0
C      1  0.4339730000000  0.5371890000000  0.4719770000000 1.0
C      1  0.5660270000000  0.4628110000000  0.4719770000000 1.0
C      1  0.5280230000000  0.4339730000000  0.4628110000000 1.0
C      1  0.5280230000000  0.5660270000000  0.5371890000000 1.0
C      1  0.4719770000000  0.4339730000000  0.5371890000000 1.0
C      1  0.4628110000000  0.5280230000000  0.4339730000000 1.0
C      1  0.4628110000000  0.4719770000000  0.5660270000000 1.0
C      1  0.5371890000000  0.5280230000000  0.5660270000000 1.0
C      1  0.5068890000000  0.4872790000000  0.5586970000000 1.0
C      1  0.5586970000000  0.5068890000000  0.4872790000000 1.0
C      1  0.4872790000000  0.5586970000000  0.5068890000000 1.0
C      1  0.4931110000000  0.5127210000000  0.5586970000000 1.0
C      1  0.4931110000000  0.4872790000000  0.4413030000000 1.0
C      1  0.5068890000000  0.5127210000000  0.4413030000000 1.0
C      1  0.4413030000000  0.4931110000000  0.4872790000000 1.0
C      1  0.4413030000000  0.5068890000000  0.5127210000000 1.0
C      1  0.5586970000000  0.4931110000000  0.5127210000000 1.0
C      1  0.5127210000000  0.4413030000000  0.5068890000000 1.0
C      1  0.5127210000000  0.5586970000000  0.4931110000000 1.0
C      1  0.4872790000000  0.4413030000000  0.4931110000000 1.0
C      1  0.5068890000000  0.4872790000000  0.4413030000000 1.0
C      1  0.5586970000000  0.5068890000000  0.5127210000000 1.0
C      1  0.4872790000000  0.5586970000000  0.4931110000000 1.0
C      1  0.4931110000000  0.5127210000000  0.4413030000000 1.0
C      1  0.4931110000000  0.4872790000000  0.5586970000000 1.0
C      1  0.5068890000000  0.5127210000000  0.5586970000000 1.0
C      1  0.4413030000000  0.4931110000000  0.5127210000000 1.0
C      1  0.4413030000000  0.5068890000000  0.4872790000000 1.0
C      1  0.5586970000000  0.4931110000000  0.4872790000000 1.0
C      1  0.5127210000000  0.4413030000000  0.4931110000000 1.0
C      1  0.5127210000000  0.5586970000000  0.5068890000000 1.0
C      1  0.4872790000000  0.4413030000000  0.5068890000000 1.0
C      1  0.4863740000000  0.5809320000000  0.5185600000000 1.0
C      1  0.5185600000000  0.4863740000000  0.5809320000000 1.0
C      1  0.5809320000000  0.5185600000000  0.4863740000000 1.0
C      1  0.5136260000000  0.4190680000000  0.5185600000000 1.0
C      1  0.5136260000000  0.5809320000000  0.4814400000000 1.0
C      1  0.4863740000000  0.4190680000000  0.4814400000000 1.0
C      1  0.4814400000000  0.5136260000000  0.5809320000000 1.0
C      1  0.4814400000000  0.4863740000000  0.4190680000000 1.0
C      1  0.5185600000000  0.5136260000000  0.4190680000000 1.0
C      1  0.4190680000000  0.4814400000000  0.4863740000000 1.0
C      1  0.4190680000000  0.5185600000000  0.5136260000000 1.0
C      1  0.5809320000000  0.4814400000000  0.5136260000000 1.0
C      1  0.4863740000000  0.5809320000000  0.4814400000000 1.0
C      1  0.5185600000000  0.4863740000000  0.4190680000000 1.0
C      1  0.5809320000000  0.5185600000000  0.5136260000000 1.0
C      1  0.5136260000000  0.4190680000000  0.4814400000000 1.0
C      1  0.5136260000000  0.5809320000000  0.5185600000000 1.0
C      1  0.4863740000000  0.4190680000000  0.5185600000000 1.0
C      1  0.4814400000000  0.5136260000000  0.4190680000000 1.0
C      1  0.4814400000000  0.4863740000000  0.5809320000000 1.0
C      1  0.5185600000000  0.5136260000000  0.5809320000000 1.0
C      1  0.4190680000000  0.4814400000000  0.5136260000000 1.0
C      1  0.4190680000000  0.5185600000000  0.4863740000000 1.0
C      1  0.5809320000000  0.4814400000000  0.4863740000000 1.0
C      1  0.5607310000000  0.5497940000000  0.5072280000000 1.0
C      1  0.5072280000000  0.5607310000000  0.5497940000000 1.0
C      1  0.5497940000000  0.5072280000000  0.5607310000000 1.0
C      1  0.4392690000000  0.4502060000000  0.5072280000000 1.0
C      1  0.4392690000000  0.5497940000000  0.4927720000000 1.0
C      1  0.5607310000000  0.4502060000000  0.4927720000000 1.0
C      1  0.4927720000000  0.4392690000000  0.5497940000000 1.0
C      1  0.4927720000000  0.5607310000000  0.4502060000000 1.0
C      1  0.5072280000000  0.4392690000000  0.4502060000000 1.0
C      1  0.4502060000000  0.4927720000000  0.5607310000000 1.0
C      1  0.4502060000000  0.5072280000000  0.4392690000000 1.0
C      1  0.5497940000000  0.4927720000000  0.4392690000000 1.0
C      1  0.5607310000000  0.5497940000000  0.4927720000000 1.0
C      1  0.5072280000000  0.5607310000000  0.4502060000000 1.0
C      1  0.5497940000000  0.5072280000000  0.4392690000000 1.0
C      1  0.4392690000000  0.4502060000000  0.4927720000000 1.0
C      1  0.4392690000000  0.5497940000000  0.5072280000000 1.0
C      1  0.5607310000000  0.4502060000000  0.5072280000000 1.0
C      1  0.4927720000000  0.4392690000000  0.4502060000000 1.0
C      1  0.4927720000000  0.5607310000000  0.5497940000000 1.0
C      1  0.5072280000000  0.4392690000000  0.5497940000000 1.0
C      1  0.4502060000000  0.4927720000000  0.4392690000000 1.0
C      1  0.4502060000000  0.5072280000000  0.5607310000000 1.0
C      1  0.5497940000000  0.4927720000000  0.5607310000000 1.0
C      1  0.4525000000000  0.5529970000000  0.5155530000000 1.0
C      1  0.5155530000000  0.4525000000000  0.5529970000000 1.0
C      1  0.5529970000000  0.5155530000000  0.4525000000000 1.0
C      1  0.5475000000000  0.4470030000000  0.5155530000000 1.0
C      1  0.5475000000000  0.5529970000000  0.4844470000000 1.0
C      1  0.4525000000000  0.4470030000000  0.4844470000000 1.0
C      1  0.4844470000000  0.5475000000000  0.5529970000000 1.0
C      1  0.4844470000000  0.4525000000000  0.4470030000000 1.0
C      1  0.5155530000000  0.5475000000000  0.4470030000000 1.0
C      1  0.4470030000000  0.4844470000000  0.4525000000000 1.0
C      1  0.4470030000000  0.5155530000000  0.5475000000000 1.0
C      1  0.5529970000000  0.4844470000000  0.5475000000000 1.0
C      1  0.4525000000000  0.5529970000000  0.4844470000000 1.0
C      1  0.5155530000000  0.4525000000000  0.4470030000000 1.0
C      1  0.5529970000000  0.5155530000000  0.5475000000000 1.0
C      1  0.5475000000000  0.4470030000000  0.4844470000000 1.0
C      1  0.5475000000000  0.5529970000000  0.5155530000000 1.0
C      1  0.4525000000000  0.4470030000000  0.5155530000000 1.0
C      1  0.4844470000000  0.5475000000000  0.4470030000000 1.0
C      1  0.4844470000000  0.4525000000000  0.5529970000000 1.0
C      1  0.5155530000000  0.5475000000000  0.5529970000000 1.0
C      1  0.4470030000000  0.4844470000000  0.5475000000000 1.0
C      1  0.4470030000000  0.5155530000000  0.4525000000000 1.0
C      1  0.5529970000000  0.4844470000000  0.4525000000000 1.0
C      1  0.5277050000000  0.4188310000000  0.5175250000000 1.0
C      1  0.5175250000000  0.5277050000000  0.4188310000000 1.0
C      1  0.4188310000000  0.5175250000000  0.5277050000000 1.0
C      1  0.4722950000000  0.5811690000000  0.5175250000000 1.0
C      1  0.4722950000000  0.4188310000000  0.4824750000000 1.0
C      1  0.5277050000000  0.5811690000000  0.4824750000000 1.0
C      1  0.4824750000000  0.4722950000000  0.4188310000000 1.0
C      1  0.4824750000000  0.5277050000000  0.5811690000000 1.0
C      1  0.5175250000000  0.4722950000000  0.5811690000000 1.0
C      1  0.5811690000000  0.4824750000000  0.5277050000000 1.0
C      1  0.5811690000000  0.5175250000000  0.4722950000000 1.0
C      1  0.4188310000000  0.4824750000000  0.4722950000000 1.0
C      1  0.5277050000000  0.4188310000000  0.4824750000000 1.0
C      1  0.5175250000000  0.5277050000000  0.5811690000000 1.0
C      1  0.4188310000000  0.5175250000000  0.4722950000000 1.0
C      1  0.4722950000000  0.5811690000000  0.4824750000000 1.0
C      1  0.4722950000000  0.4188310000000  0.5175250000000 1.0
C      1  0.5277050000000  0.5811690000000  0.5175250000000 1.0
C      1  0.4824750000000  0.4722950000000  0.5811690000000 1.0
C      1  0.4824750000000  0.5277050000000  0.4188310000000 1.0
C      1  0.5175250000000  0.4722950000000  0.4188310000000 1.0
C      1  0.5811690000000  0.4824750000000  0.4722950000000 1.0
C      1  0.5811690000000  0.5175250000000  0.5277050000000 1.0
C      1  0.4188310000000  0.4824750000000  0.5277050000000 1.0
C      1  0.4732710000000  0.5146300000000  0.5189600000000 1.0
C      1  0.5189600000000  0.4732710000000  0.5146300000000 1.0
C      1  0.5146300000000  0.5189600000000  0.4732710000000 1.0
C      1  0.5267290000000  0.4853700000000  0.5189600000000 1.0
C      1  0.5267290000000  0.5146300000000  0.4810400000000 1.0
C      1  0.4732710000000  0.4853700000000  0.4810400000000 1.0
C      1  0.4810400000000  0.5267290000000  0.5146300000000 1.0
C      1  0.4810400000000  0.4732710000000  0.4853700000000 1.0
C      1  0.5189600000000  0.5267290000000  0.4853700000000 1.0
C      1  0.4853700000000  0.4810400000000  0.4732710000000 1.0
C      1  0.4853700000000  0.5189600000000  0.5267290000000 1.0
C      1  0.5146300000000  0.4810400000000  0.5267290000000 1.0
C      1  0.4732710000000  0.5146300000000  0.4810400000000 1.0
C      1  0.5189600000000  0.4732710000000  0.4853700000000 1.0
C      1  0.5146300000000  0.5189600000000  0.5267290000000 1.0
C      1  0.5267290000000  0.4853700000000  0.4810400000000 1.0
C      1  0.5267290000000  0.5146300000000  0.5189600000000 1.0
C      1  0.4732710000000  0.4853700000000  0.5189600000000 1.0
C      1  0.4810400000000  0.5267290000000  0.4853700000000 1.0
C      1  0.4810400000000  0.4732710000000  0.5146300000000 1.0
C      1  0.5189600000000  0.5267290000000  0.5146300000000 1.0
C      1  0.4853700000000  0.4810400000000  0.5267290000000 1.0
C      1  0.4853700000000  0.5189600000000  0.4732710000000 1.0
C      1  0.5146300000000  0.4810400000000  0.4732710000000 1.0
C      1  0.4836410000000  0.4572300000000  0.5670800000000 1.0
C      1  0.5670800000000  0.4836410000000  0.4572300000000 1.0
C      1  0.4572300000000  0.5670800000000  0.4836410000000 1.0
C      1  0.5163590000000  0.5427700000000  0.5670800000000 1.0
C      1  0.5163590000000  0.4572300000000  0.4329200000000 1.0
C      1  0.4836410000000  0.5427700000000  0.4329200000000 1.0
C      1  0.4329200000000  0.5163590000000  0.4572300000000 1.0
C      1  0.4329200000000  0.4836410000000  0.5427700000000 1.0
C      1  0.5670800000000  0.5163590000000  0.5427700000000 1.0
C      1  0.5427700000000  0.4329200000000  0.4836410000000 1.0
C      1  0.5427700000000  0.5670800000000  0.5163590000000 1.0
C      1  0.4572300000000  0.4329200000000  0.5163590000000 1.0
C      1  0.4836410000000  0.4572300000000  0.4329200000000 1.0
C      1  0.5670800000000  0.4836410000000  0.5427700000000 1.0
C      1  0.4572300000000  0.5670800000000  0.5163590000000 1.0
C      1  0.5163590000000  0.5427700000000  0.4329200000000 1.0
C      1  0.5163590000000  0.4572300000000  0.5670800000000 1.0
C      1  0.4836410000000  0.5427700000000  0.5670800000000 1.0
C      1  0.4329200000000  0.5163590000000  0.5427700000000 1.0
C      1  0.4329200000000  0.4836410000000  0.4572300000000 1.0
C      1  0.5670800000000  0.5163590000000  0.4572300000000 1.0
C      1  0.5427700000000  0.4329200000000  0.5163590000000 1.0
C      1  0.5427700000000  0.5670800000000  0.4836410000000 1.0
C      1  0.4572300000000  0.4329200000000  0.4836410000000 1.0
C      1  0.4613980000000  0.5417100000000  0.4916350000000 1.0
C      1  0.4916350000000  0.4613980000000  0.5417100000000 1.0
C      1  0.5417100000000  0.4916350000000  0.4613980000000 1.0
C      1  0.5386020000000  0.4582900000000  0.4916350000000 1.0
C      1  0.5386020000000  0.5417100000000  0.5083650000000 1.0
C      1  0.4613980000000  0.4582900000000  0.5083650000000 1.0
C      1  0.5083650000000  0.5386020000000  0.5417100000000 1.0
C      1  0.5083650000000  0.4613980000000  0.4582900000000 1.0
C      1  0.4916350000000  0.5386020000000  0.4582900000000 1.0
C      1  0.4582900000000  0.5083650000000  0.4613980000000 1.0
C      1  0.4582900000000  0.4916350000000  0.5386020000000 1.0
C      1  0.5417100000000  0.5083650000000  0.5386020000000 1.0
C      1  0.4613980000000  0.5417100000000  0.5083650000000 1.0
C      1  0.4916350000000  0.4613980000000  0.4582900000000 1.0
C      1  0.5417100000000  0.4916350000000  0.5386020000000 1.0
C      1  0.5386020000000  0.4582900000000  0.5083650000000 1.0
C      1  0.5386020000000  0.5417100000000  0.4916350000000 1.0
C      1  0.4613980000000  0.4582900000000  0.4916350000000 1.0
C      1  0.5083650000000  0.5386020000000  0.4582900000000 1.0
C      1  0.5083650000000  0.4613980000000  0.5417100000000 1.0
C      1  0.4916350000000  0.5386020000000  0.5417100000000 1.0
C      1  0.4582900000000  0.5083650000000  0.5386020000000 1.0
C      1  0.4582900000000  0.4916350000000  0.4613980000000 1.0
C      1  0.5417100000000  0.5083650000000  0.4613980000000 1.0
C      1  0.4687910000000  0.4928770000000  0.4226310000000 1.0
C      1  0.4226310000000  0.4687910000000  0.4928770000000 1.0
C      1  0.4928770000000  0.4226310000000  0.4687910000000 1.0
C      1  0.5312090000000  0.5071230000000  0.4226310000000 1.0
C      1  0.5312090000000  0.4928770000000  0.5773690000000 1.0
C      1  0.4687910000000  0.5071230000000  0.5773690000000 1.0
C      1  0.5773690000000  0.5312090000000  0.4928770000000 1.0
C      1  0.5773690000000  0.4687910000000  0.5071230000000 1.0
C      1  0.4226310000000  0.5312090000000  0.5071230000000 1.0
C      1  0.5071230000000  0.5773690000000  0.4687910000000 1.0
C      1  0.5071230000000  0.4226310000000  0.5312090000000 1.0
C      1  0.4928770000000  0.5773690000000  0.5312090000000 1.0
C      1  0.4687910000000  0.4928770000000  0.5773690000000 1.0
C      1  0.4226310000000  0.4687910000000  0.5071230000000 1.0
C      1  0.4928770000000  0.4226310000000  0.5312090000000 1.0
C      1  0.5312090000000  0.5071230000000  0.5773690000000 1.0
C      1  0.5312090000000  0.4928770000000  0.4226310000000 1.0
C      1  0.4687910000000  0.5071230000000  0.4226310000000 1.0
C      1  0.5773690000000  0.5312090000000  0.5071230000000 1.0
C      1  0.5773690000000  0.4687910000000  0.4928770000000 1.0
C      1  0.4226310000000  0.5312090000000  0.4928770000000 1.0
C      1  0.5071230000000  0.5773690000000  0.5312090000000 1.0
C      1  0.5071230000000  0.4226310000000  0.4687910000000 1.0
C      1  0.4928770000000  0.5773690000000  0.4687910000000 1.0
C      1  0.5074380000000  0.4925220000000  0.5337180000000 1.0
C      1  0.5337180000000  0.5074380000000  0.4925220000000 1.0
C      1  0.4925220000000  0.5337180000000  0.5074380000000 1.0
C      1  0.4925620000000  0.5074780000000  0.5337180000000 1.0
C      1  0.4925620000000  0.4925220000000  0.4662820000000 1.0
C      1  0.5074380000000  0.5074780000000  0.4662820000000 1.0
C      1  0.4662820000000  0.4925620000000  0.4925220000000 1.0
C      1  0.4662820000000  0.5074380000000  0.5074780000000 1.0
C      1  0.5337180000000  0.4925620000000  0.5074780000000 1.0
C      1  0.5074780000000  0.4662820000000  0.5074380000000 1.0
C      1  0.5074780000000  0.5337180000000  0.4925620000000 1.0
C      1  0.4925220000000  0.4662820000000  0.4925620000000 1.0
C      1  0.5074380000000  0.4925220000000  0.4662820000000 1.0
C      1  0.5337180000000  0.5074380000000  0.5074780000000 1.0
C      1  0.4925220000000  0.5337180000000  0.4925620000000 1.0
C      1  0.4925620000000  0.5074780000000  0.4662820000000 1.0
C      1  0.4925620000000  0.4925220000000  0.5337180000000 1.0
C      1  0.5074380000000  0.5074780000000  0.5337180000000 1.0
C      1  0.4662820000000  0.4925620000000  0.5074780000000 1.0
C      1  0.4662820000000  0.5074380000000  0.4925220000000 1.0
C      1  0.5337180000000  0.4925620000000  0.4925220000000 1.0
C      1  0.5074780000000  0.4662820000000  0.4925620000000 1.0
C      1  0.5074780000000  0.5337180000000  0.5074380000000 1.0
C      1  0.4925220000000  0.4662820000000  0.5074380000000 1.0
C      1  0.5477650000000  0.5157260000000  0.5141510000000 1.0
C      1  0.5141510000000  0.5477650000000  0.5157260000000 1.0
C      1  0.5157260000000  0.5141510000000  0.5477650000000 1.0
C      1  0.4522350000000  0.4842740000000  0.5141510000000 1.0
C      1  0.4522350000000  0.5157260000000  0.4858490000000 1.0
C      1  0.5477650000000  0.4842740000000  0.4858490000000 1.0
C      1  0.4858490000000  0.4522350000000  0.5157260000000 1.0
C      1  0.4858490000000  0.5477650000000  0.4842740000000 1.0
C      1  0.5141510000000  0.4522350000000  0.4842740000000 1.0
C      1  0.4842740000000  0.4858490000000  0.5477650000000 1.0
C      1  0.4842740000000  0.5141510000000  0.4522350000000 1.0
C      1  0.5157260000000  0.4858490000000  0.4522350000000 1.0
C      1  0.5477650000000  0.5157260000000  0.4858490000000 1.0
C      1  0.5141510000000  0.5477650000000  0.4842740000000 1.0
C      1  0.5157260000000  0.5141510000000  0.4522350000000 1.0
C      1  0.4522350000000  0.4842740000000  0.4858490000000 1.0
C      1  0.4522350000000  0.5157260000000  0.5141510000000 1.0
C      1  0.5477650000000  0.4842740000000  0.5141510000000 1.0
C      1  0.4858490000000  0.4522350000000  0.4842740000000 1.0
C      1  0.4858490000000  0.5477650000000  0.5157260000000 1.0
C      1  0.5141510000000  0.4522350000000  0.5157260000000 1.0
C      1  0.4842740000000  0.4858490000000  0.4522350000000 1.0
C      1  0.4842740000000  0.5141510000000  0.5477650000000 1.0
C      1  0.5157260000000  0.4858490000000  0.5477650000000 1.0
END
