TITL C-1892077-1691-35 1.7407534519513e-06 1000000 -2640.35454809852 0 0 380 (Th) n - 1
REM
REM in /nfs/bkarasulu/CARBON/AIRSS/Generating-Clusters/GAP-ML-2020/Higher-Symm/Selected-Sizes/TryA-Only_Ih-Symm/Larger-Clusters
REM
REM
REM
REM
REM
REM ./C.cell (2cf5181f0f1d4d5b12b972d32ad12063)
REM
REM compiler GCC version 9.2.1 20190827 (Red Hat 9.2.1-1)
REM options -cpp -mtune=generic -march=x86-64 -g -O0 -fpre-include=/usr/include/finclude/math-vector-fortran.h
REM seed 1410610449 -1095357640 -840893817 1045911216 2251296 1152819690 1791488183 1353902012 -166434126 1923491654 1619200522 111546263 -1813288481 -2133106738 824369734 -1605143500 -272369473 1329672389 145655619 -1446977375 1087340112 1657031192 17835096 1574667627 1034341651 1301015910 947546001 -660454613 737194374 2108412492 2113791394 -1542704201 256901833
REM
CELL 1.54180  100.00000  100.00000  100.00000   90.00000   90.00000   90.00000
LATT -1
SFAC C  
C      1  0.4297200000000  0.5391490000000  0.5131570000000 1.0
C      1  0.5392580000000  0.5130370000000  0.4297300000000 1.0
C      1  0.5131470000000  0.4296110000000  0.5392670000000 1.0
C      1  0.4297200000000  0.4608310000000  0.4870620000000 1.0
C      1  0.5704790000000  0.5391490000000  0.4870620000000 1.0
C      1  0.5704790000000  0.4608320000000  0.5131560000000 1.0
C      1  0.5392580000000  0.4869430000000  0.5704880000000 1.0
C      1  0.4609400000000  0.5130370000000  0.5704890000000 1.0
C      1  0.4609400000000  0.4869430000000  0.4297300000000 1.0
C      1  0.5131470000000  0.5703690000000  0.4609500000000 1.0
C      1  0.4870520000000  0.4296100000000  0.4609500000000 1.0
C      1  0.4870520000000  0.5703700000000  0.5392680000000 1.0
C      1  0.5704790000000  0.5391490000000  0.5131570000000 1.0
C      1  0.4609400000000  0.5130370000000  0.4297300000000 1.0
C      1  0.4870520000000  0.4296100000000  0.5392670000000 1.0
C      1  0.5704790000000  0.4608320000000  0.4870620000000 1.0
C      1  0.4297200000000  0.5391490000000  0.4870620000000 1.0
C      1  0.4297200000000  0.4608320000000  0.5131560000000 1.0
C      1  0.4609410000000  0.4869430000000  0.5704880000000 1.0
C      1  0.5392580000000  0.5130370000000  0.5704890000000 1.0
C      1  0.5392580000000  0.4869430000000  0.4297300000000 1.0
C      1  0.4870520000000  0.5703700000000  0.4609500000000 1.0
C      1  0.5131470000000  0.4296110000000  0.4609500000000 1.0
C      1  0.5131470000000  0.5703690000000  0.5392680000000 1.0
C      1  0.5153040000000  0.4764940000000  0.5695320000000 1.0
C      1  0.4766040000000  0.5694120000000  0.5153140000000 1.0
C      1  0.5695230000000  0.5151950000000  0.4766130000000 1.0
C      1  0.5153040000000  0.5234850000000  0.4306870000000 1.0
C      1  0.4848940000000  0.4764940000000  0.4306870000000 1.0
C      1  0.4848940000000  0.5234860000000  0.5695330000000 1.0
C      1  0.4766030000000  0.4305660000000  0.4849040000000 1.0
C      1  0.5235950000000  0.5694130000000  0.4849040000000 1.0
C      1  0.5235950000000  0.4305680000000  0.5153130000000 1.0
C      1  0.5695220000000  0.4847860000000  0.5236050000000 1.0
C      1  0.4306770000000  0.5151950000000  0.5236050000000 1.0
C      1  0.4306770000000  0.4847860000000  0.4766140000000 1.0
C      1  0.4848940000000  0.4764940000000  0.5695320000000 1.0
C      1  0.5235950000000  0.5694120000000  0.5153140000000 1.0
C      1  0.4306760000000  0.5151950000000  0.4766130000000 1.0
C      1  0.4848940000000  0.5234860000000  0.4306860000000 1.0
C      1  0.5153040000000  0.4764950000000  0.4306870000000 1.0
C      1  0.5153040000000  0.5234860000000  0.5695320000000 1.0
C      1  0.5235960000000  0.4305670000000  0.4849040000000 1.0
C      1  0.4766040000000  0.5694130000000  0.4849040000000 1.0
C      1  0.4766040000000  0.4305670000000  0.5153140000000 1.0
C      1  0.4306770000000  0.4847860000000  0.5236050000000 1.0
C      1  0.5695220000000  0.5151950000000  0.5236050000000 1.0
C      1  0.5695220000000  0.4847860000000  0.4766140000000 1.0
C      1  0.4527770000000  0.4811000000000  0.5523230000000 1.0
C      1  0.4812090000000  0.5522050000000  0.4527860000000 1.0
C      1  0.5523140000000  0.4526680000000  0.4812190000000 1.0
C      1  0.4527760000000  0.5188810000000  0.4478940000000 1.0
C      1  0.5474220000000  0.4811000000000  0.4478950000000 1.0
C      1  0.5474220000000  0.5188800000000  0.5523240000000 1.0
C      1  0.4812090000000  0.4477750000000  0.5474320000000 1.0
C      1  0.5189890000000  0.5522040000000  0.5474320000000 1.0
C      1  0.5189900000000  0.4477760000000  0.4527870000000 1.0
C      1  0.5523130000000  0.5473120000000  0.5190000000000 1.0
C      1  0.4478850000000  0.4526670000000  0.5189990000000 1.0
C      1  0.4478850000000  0.5473130000000  0.4812190000000 1.0
C      1  0.5474220000000  0.4811000000000  0.5523230000000 1.0
C      1  0.5189900000000  0.5522040000000  0.4527860000000 1.0
C      1  0.4478840000000  0.4526670000000  0.4812190000000 1.0
C      1  0.5474220000000  0.5188800000000  0.4478940000000 1.0
C      1  0.4527760000000  0.4811000000000  0.4478950000000 1.0
C      1  0.4527770000000  0.5188810000000  0.5523240000000 1.0
C      1  0.5189890000000  0.4477760000000  0.5474310000000 1.0
C      1  0.4812090000000  0.5522050000000  0.5474320000000 1.0
C      1  0.4812090000000  0.4477750000000  0.4527870000000 1.0
C      1  0.4478850000000  0.5473130000000  0.5189990000000 1.0
C      1  0.5523140000000  0.4526680000000  0.5189990000000 1.0
C      1  0.5523140000000  0.5473130000000  0.4812180000000 1.0
C      1  0.4381650000000  0.5375230000000  0.4759690000000 1.0
C      1  0.5376320000000  0.4758500000000  0.4381760000000 1.0
C      1  0.4759590000000  0.4380560000000  0.5376410000000 1.0
C      1  0.4381660000000  0.4624580000000  0.5242490000000 1.0
C      1  0.5620340000000  0.5375230000000  0.5242500000000 1.0
C      1  0.5620340000000  0.4624580000000  0.4759690000000 1.0
C      1  0.5376320000000  0.5241300000000  0.5620430000000 1.0
C      1  0.4625670000000  0.4758490000000  0.5620430000000 1.0
C      1  0.4625660000000  0.5241310000000  0.4381750000000 1.0
C      1  0.4759590000000  0.5619250000000  0.4625760000000 1.0
C      1  0.5242400000000  0.4380560000000  0.4625760000000 1.0
C      1  0.5242390000000  0.5619240000000  0.5376420000000 1.0
C      1  0.5620340000000  0.5375230000000  0.4759680000000 1.0
C      1  0.4625660000000  0.4758500000000  0.4381750000000 1.0
C      1  0.5242390000000  0.4380560000000  0.5376410000000 1.0
C      1  0.5620330000000  0.4624580000000  0.5242490000000 1.0
C      1  0.4381650000000  0.5375230000000  0.5242500000000 1.0
C      1  0.4381650000000  0.4624570000000  0.4759690000000 1.0
C      1  0.4625660000000  0.5241310000000  0.5620440000000 1.0
C      1  0.5376310000000  0.4758500000000  0.5620430000000 1.0
C      1  0.5376320000000  0.5241300000000  0.4381750000000 1.0
C      1  0.5242400000000  0.5619240000000  0.4625760000000 1.0
C      1  0.4759590000000  0.4380550000000  0.4625760000000 1.0
C      1  0.4759590000000  0.5619240000000  0.5376420000000 1.0
C      1  0.4787870000000  0.4612190000000  0.4493150000000 1.0
C      1  0.4613280000000  0.4491950000000  0.4787980000000 1.0
C      1  0.4493050000000  0.4786790000000  0.4613390000000 1.0
C      1  0.4787880000000  0.5387610000000  0.5509050000000 1.0
C      1  0.5214100000000  0.4612200000000  0.5509030000000 1.0
C      1  0.5214100000000  0.5387610000000  0.4493150000000 1.0
C      1  0.4613290000000  0.5507850000000  0.5214200000000 1.0
C      1  0.5388700000000  0.4491960000000  0.5214200000000 1.0
C      1  0.5388700000000  0.5507850000000  0.4787970000000 1.0
C      1  0.4493050000000  0.5213020000000  0.5388800000000 1.0
C      1  0.5508930000000  0.4786790000000  0.5388800000000 1.0
C      1  0.5508950000000  0.5213020000000  0.4613380000000 1.0
C      1  0.5214100000000  0.4612200000000  0.4493150000000 1.0
C      1  0.5388700000000  0.4491950000000  0.4787980000000 1.0
C      1  0.5508940000000  0.4786790000000  0.4613390000000 1.0
C      1  0.5214100000000  0.5387610000000  0.5509040000000 1.0
C      1  0.4787880000000  0.4612190000000  0.5509040000000 1.0
C      1  0.4787870000000  0.5387610000000  0.4493140000000 1.0
C      1  0.5388700000000  0.5507840000000  0.5214200000000 1.0
C      1  0.4613290000000  0.4491950000000  0.5214200000000 1.0
C      1  0.4613280000000  0.5507850000000  0.4787970000000 1.0
C      1  0.5508940000000  0.5213020000000  0.5388800000000 1.0
C      1  0.4493050000000  0.4786790000000  0.5388790000000 1.0
C      1  0.4493040000000  0.5213020000000  0.4613380000000 1.0
C      1  0.4936330000000  0.5710370000000  0.5627690000000 1.0
C      1  0.5711460000000  0.5626490000000  0.4936430000000 1.0
C      1  0.5627580000000  0.4935230000000  0.5711560000000 1.0
C      1  0.4936330000000  0.4289440000000  0.4374500000000 1.0
C      1  0.5065660000000  0.5710370000000  0.4374500000000 1.0
C      1  0.5065660000000  0.4289430000000  0.5627680000000 1.0
C      1  0.5711460000000  0.4373310000000  0.5065760000000 1.0
C      1  0.4290530000000  0.5626500000000  0.5065760000000 1.0
C      1  0.4290520000000  0.4373310000000  0.4936430000000 1.0
C      1  0.5627590000000  0.5064570000000  0.4290620000000 1.0
C      1  0.4374400000000  0.4935230000000  0.4290630000000 1.0
C      1  0.4374400000000  0.5064570000000  0.5711560000000 1.0
C      1  0.5065660000000  0.5710370000000  0.5627680000000 1.0
C      1  0.4290530000000  0.5626500000000  0.4936430000000 1.0
C      1  0.4374400000000  0.4935230000000  0.5711550000000 1.0
C      1  0.5065660000000  0.4289440000000  0.4374500000000 1.0
C      1  0.4936330000000  0.5710370000000  0.4374500000000 1.0
C      1  0.4936330000000  0.4289430000000  0.5627680000000 1.0
C      1  0.4290520000000  0.4373310000000  0.5065760000000 1.0
C      1  0.5711450000000  0.5626490000000  0.5065760000000 1.0
C      1  0.5711460000000  0.4373310000000  0.4936430000000 1.0
C      1  0.4374400000000  0.5064570000000  0.4290630000000 1.0
C      1  0.5627590000000  0.4935230000000  0.4290620000000 1.0
C      1  0.5627580000000  0.5064570000000  0.5711560000000 1.0
C      1  0.5312340000000  0.5625150000000  0.4750510000000 1.0
C      1  0.5626240000000  0.4749320000000  0.5312430000000 1.0
C      1  0.4750410000000  0.5311250000000  0.5626350000000 1.0
C      1  0.5312340000000  0.4374660000000  0.5251670000000 1.0
C      1  0.4689650000000  0.5625150000000  0.5251670000000 1.0
C      1  0.4689640000000  0.4374640000000  0.4750510000000 1.0
C      1  0.5626250000000  0.5250480000000  0.4689740000000 1.0
C      1  0.4375750000000  0.4749320000000  0.4689750000000 1.0
C      1  0.4375740000000  0.5250490000000  0.5312440000000 1.0
C      1  0.4750410000000  0.4688550000000  0.4375840000000 1.0
C      1  0.5251570000000  0.5311240000000  0.4375850000000 1.0
C      1  0.5251570000000  0.4688560000000  0.5626340000000 1.0
C      1  0.4689650000000  0.5625160000000  0.4750510000000 1.0
C      1  0.4375750000000  0.4749320000000  0.5312430000000 1.0
C      1  0.5251570000000  0.5311240000000  0.5626340000000 1.0
C      1  0.4689650000000  0.4374650000000  0.5251670000000 1.0
C      1  0.5312330000000  0.5625140000000  0.5251670000000 1.0
C      1  0.5312340000000  0.4374650000000  0.4750510000000 1.0
C      1  0.4375740000000  0.5250490000000  0.4689740000000 1.0
C      1  0.5626240000000  0.4749320000000  0.4689750000000 1.0
C      1  0.5626250000000  0.5250480000000  0.5312440000000 1.0
C      1  0.5251570000000  0.4688560000000  0.4375850000000 1.0
C      1  0.4750410000000  0.5311250000000  0.4375840000000 1.0
C      1  0.4750410000000  0.4688550000000  0.5626340000000 1.0
C      1  0.4720730000000  0.4595300000000  0.5213160000000 1.0
C      1  0.4596390000000  0.5211980000000  0.4720830000000 1.0
C      1  0.5213060000000  0.4719640000000  0.4596500000000 1.0
C      1  0.4720730000000  0.5404510000000  0.4789020000000 1.0
C      1  0.5281260000000  0.4595300000000  0.4789020000000 1.0
C      1  0.5281250000000  0.5404490000000  0.5213160000000 1.0
C      1  0.4596400000000  0.4787830000000  0.5281350000000 1.0
C      1  0.5405600000000  0.5211970000000  0.5281360000000 1.0
C      1  0.5405600000000  0.4787840000000  0.4720830000000 1.0
C      1  0.5213060000000  0.5280160000000  0.5405700000000 1.0
C      1  0.4788920000000  0.4719640000000  0.5405700000000 1.0
C      1  0.4788920000000  0.5280170000000  0.4596480000000 1.0
C      1  0.5281250000000  0.4595300000000  0.5213160000000 1.0
C      1  0.5405600000000  0.5211970000000  0.4720830000000 1.0
C      1  0.4788920000000  0.4719640000000  0.4596490000000 1.0
C      1  0.5281260000000  0.5404500000000  0.4789020000000 1.0
C      1  0.4720730000000  0.4595290000000  0.4789020000000 1.0
C      1  0.4720740000000  0.5404500000000  0.5213160000000 1.0
C      1  0.5405590000000  0.4787840000000  0.5281350000000 1.0
C      1  0.4596390000000  0.5211980000000  0.5281350000000 1.0
C      1  0.4596390000000  0.4787830000000  0.4720830000000 1.0
C      1  0.4788920000000  0.5280170000000  0.5405700000000 1.0
C      1  0.5213060000000  0.4719640000000  0.5405690000000 1.0
C      1  0.5213060000000  0.5280160000000  0.4596490000000 1.0
C      1  0.4933100000000  0.5154950000000  0.4394450000000 1.0
C      1  0.5156040000000  0.4393260000000  0.4933200000000 1.0
C      1  0.4394360000000  0.4932030000000  0.5156140000000 1.0
C      1  0.4933100000000  0.4844850000000  0.5607740000000 1.0
C      1  0.5068870000000  0.5154950000000  0.5607740000000 1.0
C      1  0.5068870000000  0.4844850000000  0.4394460000000 1.0
C      1  0.5156040000000  0.5606540000000  0.5068970000000 1.0
C      1  0.4845950000000  0.4393260000000  0.5068970000000 1.0
C      1  0.4845950000000  0.5606540000000  0.4933200000000 1.0
C      1  0.4394350000000  0.5067790000000  0.4846050000000 1.0
C      1  0.5607640000000  0.4932030000000  0.4846050000000 1.0
C      1  0.5607640000000  0.5067790000000  0.5156140000000 1.0
C      1  0.5068870000000  0.5154950000000  0.4394450000000 1.0
C      1  0.4845950000000  0.4393250000000  0.4933200000000 1.0
C      1  0.5607630000000  0.4932030000000  0.5156140000000 1.0
C      1  0.5068870000000  0.4844850000000  0.5607730000000 1.0
C      1  0.4933100000000  0.5154950000000  0.5607740000000 1.0
C      1  0.4933100000000  0.4844850000000  0.4394450000000 1.0
C      1  0.4845950000000  0.5606540000000  0.5068970000000 1.0
C      1  0.5156040000000  0.4393260000000  0.5068970000000 1.0
C      1  0.5156040000000  0.5606540000000  0.4933200000000 1.0
C      1  0.5607640000000  0.5067790000000  0.4846050000000 1.0
C      1  0.4394350000000  0.4932030000000  0.4846050000000 1.0
C      1  0.4394350000000  0.5067790000000  0.5156140000000 1.0
C      1  0.4867450000000  0.5067910000000  0.5514870000000 1.0
C      1  0.5069000000000  0.5513670000000  0.4867550000000 1.0
C      1  0.5514760000000  0.4866390000000  0.5069100000000 1.0
C      1  0.4867460000000  0.4931890000000  0.4487320000000 1.0
C      1  0.5134510000000  0.5067910000000  0.4487330000000 1.0
C      1  0.5134510000000  0.4931890000000  0.5514860000000 1.0
C      1  0.5069000000000  0.4486130000000  0.5134610000000 1.0
C      1  0.4932990000000  0.5513660000000  0.5134600000000 1.0
C      1  0.4932990000000  0.4486120000000  0.4867550000000 1.0
C      1  0.5514770000000  0.5133440000000  0.4933080000000 1.0
C      1  0.4487230000000  0.4866390000000  0.4933090000000 1.0
C      1  0.4487220000000  0.5133440000000  0.5069100000000 1.0
C      1  0.5134510000000  0.5067910000000  0.5514860000000 1.0
C      1  0.4932990000000  0.5513670000000  0.4867550000000 1.0
C      1  0.4487230000000  0.4866390000000  0.5069100000000 1.0
C      1  0.5134510000000  0.4931890000000  0.4487330000000 1.0
C      1  0.4867460000000  0.5067910000000  0.4487320000000 1.0
C      1  0.4867450000000  0.4931890000000  0.5514870000000 1.0
C      1  0.4932990000000  0.4486130000000  0.5134610000000 1.0
C      1  0.5069000000000  0.5513660000000  0.5134600000000 1.0
C      1  0.5069000000000  0.4486120000000  0.4867550000000 1.0
C      1  0.4487220000000  0.5133440000000  0.4933090000000 1.0
C      1  0.5514760000000  0.4866390000000  0.4933090000000 1.0
C      1  0.5514770000000  0.5133440000000  0.5069100000000 1.0
C      1  0.4213980000000  0.5300650000000  0.4929830000000 1.0
C      1  0.5301730000000  0.4928640000000  0.4214080000000 1.0
C      1  0.4929740000000  0.4212890000000  0.5301830000000 1.0
C      1  0.4213980000000  0.4699160000000  0.5072350000000 1.0
C      1  0.5788010000000  0.5300650000000  0.5072350000000 1.0
C      1  0.5788010000000  0.4699160000000  0.4929830000000 1.0
C      1  0.5301730000000  0.5071160000000  0.5788110000000 1.0
C      1  0.4700250000000  0.4928640000000  0.5788110000000 1.0
C      1  0.4700250000000  0.5071160000000  0.4214080000000 1.0
C      1  0.4929740000000  0.5786920000000  0.4700350000000 1.0
C      1  0.5072250000000  0.4212890000000  0.4700350000000 1.0
C      1  0.5072250000000  0.5786910000000  0.5301830000000 1.0
C      1  0.5788010000000  0.5300650000000  0.4929830000000 1.0
C      1  0.4700250000000  0.4928640000000  0.4214080000000 1.0
C      1  0.5072250000000  0.4212890000000  0.5301830000000 1.0
C      1  0.5788010000000  0.4699160000000  0.5072350000000 1.0
C      1  0.4213980000000  0.5300650000000  0.5072350000000 1.0
C      1  0.4213980000000  0.4699160000000  0.4929830000000 1.0
C      1  0.4700250000000  0.5071160000000  0.5788110000000 1.0
C      1  0.5301730000000  0.4928640000000  0.5788100000000 1.0
C      1  0.5301730000000  0.5071160000000  0.4214080000000 1.0
C      1  0.5072250000000  0.5786910000000  0.4700350000000 1.0
C      1  0.4929740000000  0.4212880000000  0.4700350000000 1.0
C      1  0.4929740000000  0.5786910000000  0.5301830000000 1.0
C      1  0.4875010000000  0.5166760000000  0.4592720000000 1.0
C      1  0.5167850000000  0.4591530000000  0.4875110000000 1.0
C      1  0.4592640000000  0.4873930000000  0.5167940000000 1.0
C      1  0.4875010000000  0.4833050000000  0.5409460000000 1.0
C      1  0.5126970000000  0.5166760000000  0.5409450000000 1.0
C      1  0.5126970000000  0.4833050000000  0.4592740000000 1.0
C      1  0.5167850000000  0.5408250000000  0.5127060000000 1.0
C      1  0.4834140000000  0.4591540000000  0.5127060000000 1.0
C      1  0.4834140000000  0.5408270000000  0.4875100000000 1.0
C      1  0.4592630000000  0.5125890000000  0.4834240000000 1.0
C      1  0.5409360000000  0.4873930000000  0.4834240000000 1.0
C      1  0.5409360000000  0.5125890000000  0.5167940000000 1.0
C      1  0.5126970000000  0.5166760000000  0.4592730000000 1.0
C      1  0.4834140000000  0.4591530000000  0.4875110000000 1.0
C      1  0.5409350000000  0.4873930000000  0.5167940000000 1.0
C      1  0.5126960000000  0.4833050000000  0.5409450000000 1.0
C      1  0.4875010000000  0.5166760000000  0.5409470000000 1.0
C      1  0.4875010000000  0.4833050000000  0.4592730000000 1.0
C      1  0.4834140000000  0.5408260000000  0.5127060000000 1.0
C      1  0.5167850000000  0.4591540000000  0.5127060000000 1.0
C      1  0.5167850000000  0.5408260000000  0.4875100000000 1.0
C      1  0.5409370000000  0.5125890000000  0.4834240000000 1.0
C      1  0.4592640000000  0.4873930000000  0.4834240000000 1.0
C      1  0.4592630000000  0.5125890000000  0.5167950000000 1.0
C      1  0.5073980000000  0.4927160000000  0.5864930000000 1.0
C      1  0.4928260000000  0.5863740000000  0.5074080000000 1.0
C      1  0.5864840000000  0.5072890000000  0.4928350000000 1.0
C      1  0.5073980000000  0.5072640000000  0.4137260000000 1.0
C      1  0.4928000000000  0.4927160000000  0.4137250000000 1.0
C      1  0.4928000000000  0.5072640000000  0.5864940000000 1.0
C      1  0.4928260000000  0.4136060000000  0.4928100000000 1.0
C      1  0.5073740000000  0.5863740000000  0.4928100000000 1.0
C      1  0.5073740000000  0.4136060000000  0.5074080000000 1.0
C      1  0.5864830000000  0.4926920000000  0.5073830000000 1.0
C      1  0.4137160000000  0.5072890000000  0.5073830000000 1.0
C      1  0.4137160000000  0.4926920000000  0.4928350000000 1.0
C      1  0.4928000000000  0.4927160000000  0.5864930000000 1.0
C      1  0.5073740000000  0.5863740000000  0.5074080000000 1.0
C      1  0.4137150000000  0.5072890000000  0.4928350000000 1.0
C      1  0.4928000000000  0.5072640000000  0.4137250000000 1.0
C      1  0.5073980000000  0.4927160000000  0.4137260000000 1.0
C      1  0.5073980000000  0.5072640000000  0.5864930000000 1.0
C      1  0.5073740000000  0.4136060000000  0.4928100000000 1.0
C      1  0.4928260000000  0.5863740000000  0.4928100000000 1.0
C      1  0.4928260000000  0.4136060000000  0.5074080000000 1.0
C      1  0.4137160000000  0.4926920000000  0.5073830000000 1.0
C      1  0.5864830000000  0.5072890000000  0.5073830000000 1.0
C      1  0.5864830000000  0.4926920000000  0.4928350000000 1.0
C      1  0.4196850000000  0.4821300000000  0.4855340000000 1.0
C      1  0.4822390000000  0.4854150000000  0.4196950000000 1.0
C      1  0.4855240000000  0.4195750000000  0.4822490000000 1.0
C      1  0.4196850000000  0.5178510000000  0.5146840000000 1.0
C      1  0.5805130000000  0.4821300000000  0.5146840000000 1.0
C      1  0.5805140000000  0.5178510000000  0.4855340000000 1.0
C      1  0.4822390000000  0.5145650000000  0.5805240000000 1.0
C      1  0.5179590000000  0.4854150000000  0.5805230000000 1.0
C      1  0.5179590000000  0.5145650000000  0.4196950000000 1.0
C      1  0.4855240000000  0.5804040000000  0.5179690000000 1.0
C      1  0.5146750000000  0.4195760000000  0.5179690000000 1.0
C      1  0.5146750000000  0.5804040000000  0.4822490000000 1.0
C      1  0.5805140000000  0.4821300000000  0.4855340000000 1.0
C      1  0.5179590000000  0.4854150000000  0.4196960000000 1.0
C      1  0.5146750000000  0.4195750000000  0.4822490000000 1.0
C      1  0.5805140000000  0.5178510000000  0.5146850000000 1.0
C      1  0.4196860000000  0.4821300000000  0.5146840000000 1.0
C      1  0.4196850000000  0.5178510000000  0.4855340000000 1.0
C      1  0.5179590000000  0.5145650000000  0.5805240000000 1.0
C      1  0.4822390000000  0.4854150000000  0.5805240000000 1.0
C      1  0.4822390000000  0.5145650000000  0.4196950000000 1.0
C      1  0.5146740000000  0.5804040000000  0.5179690000000 1.0
C      1  0.4855240000000  0.4195760000000  0.5179690000000 1.0
C      1  0.4855240000000  0.5804050000000  0.4822490000000 1.0
C      1  0.4382950000000  0.5500880000000  0.4925810000000 1.0
C      1  0.5501970000000  0.4924620000000  0.4383040000000 1.0
C      1  0.4925720000000  0.4381850000000  0.5502070000000 1.0
C      1  0.4382940000000  0.4498920000000  0.5076370000000 1.0
C      1  0.5619040000000  0.5500870000000  0.5076370000000 1.0
C      1  0.5619040000000  0.4498930000000  0.4925810000000 1.0
C      1  0.5501970000000  0.5075180000000  0.5619140000000 1.0
C      1  0.4500020000000  0.4924620000000  0.5619130000000 1.0
C      1  0.4500010000000  0.5075180000000  0.4383040000000 1.0
C      1  0.4925720000000  0.5617950000000  0.4500110000000 1.0
C      1  0.5076270000000  0.4381860000000  0.4500120000000 1.0
C      1  0.5076270000000  0.5617950000000  0.5502070000000 1.0
C      1  0.5619040000000  0.5500880000000  0.4925810000000 1.0
C      1  0.4500010000000  0.4924620000000  0.4383050000000 1.0
C      1  0.5076270000000  0.4381850000000  0.5502070000000 1.0
C      1  0.5619040000000  0.4498930000000  0.5076370000000 1.0
C      1  0.4382950000000  0.5500880000000  0.5076370000000 1.0
C      1  0.4382940000000  0.4498920000000  0.4925810000000 1.0
C      1  0.4500020000000  0.5075180000000  0.5619140000000 1.0
C      1  0.5501970000000  0.4924620000000  0.5619140000000 1.0
C      1  0.5501970000000  0.5075180000000  0.4383040000000 1.0
C      1  0.5076270000000  0.5617950000000  0.4500110000000 1.0
C      1  0.4925720000000  0.4381850000000  0.4500120000000 1.0
C      1  0.4925720000000  0.5617960000000  0.5502070000000 1.0
C      1  0.5362510000000  0.4999910000000  0.4824320000000 1.0
C      1  0.5000980000000  0.4823130000000  0.5362600000000 1.0
C      1  0.4824220000000  0.5361420000000  0.5001080000000 1.0
C      1  0.5362510000000  0.4999910000000  0.5177860000000 1.0
C      1  0.4639480000000  0.4999910000000  0.5177860000000 1.0
C      1  0.4639480000000  0.4999910000000  0.4824310000000 1.0
C      1  0.5000980000000  0.5176680000000  0.4639580000000 1.0
C      1  0.5000980000000  0.4823130000000  0.4639580000000 1.0
C      1  0.5177760000000  0.4638390000000  0.5001080000000 1.0
C      1  0.5000980000000  0.5176680000000  0.5362610000000 1.0
C      1  0.4824220000000  0.4638380000000  0.5001080000000 1.0
C      1  0.5177760000000  0.5361410000000  0.5001080000000 1.0
C      1  0.5293030000000  0.4707860000000  0.5293130000000 1.0
C      1  0.5293040000000  0.5291940000000  0.4709040000000 1.0
C      1  0.4708950000000  0.5291950000000  0.5293140000000 1.0
C      1  0.4708950000000  0.4707850000000  0.5293130000000 1.0
C      1  0.5293040000000  0.4707860000000  0.4709050000000 1.0
C      1  0.4708940000000  0.5291950000000  0.4709040000000 1.0
C      1  0.4708940000000  0.4707850000000  0.4709050000000 1.0
C      1  0.5293040000000  0.5291940000000  0.5293140000000 1.0
END
