TITL C-1892083-4185-75 -7.08964659580022e-07 1000000 -2461.0359410891 0 0 360 (Th) n - 1
REM
REM in /nfs/bkarasulu/CARBON/AIRSS/Generating-Clusters/GAP-ML-2020/Higher-Symm/Selected-Sizes/TryA-Only_Ih-Symm/Larger-Clusters
REM
REM
REM
REM
REM
REM ./C.cell (2cf5181f0f1d4d5b12b972d32ad12063)
REM
REM compiler GCC version 9.2.1 20190827 (Red Hat 9.2.1-1)
REM options -cpp -mtune=generic -march=x86-64 -g -O0 -fpre-include=/usr/include/finclude/math-vector-fortran.h
REM seed 614179320 -386780246 830019300 -1056958399 -1721322985 -478825112 -1313432972 1470234478 -4813893 965944345 926626206 2020459267 1892370105 -198340662 -796070542 -1918164313 1948331910 1748316133 1375287804 880711215 -858830352 766412738 1123993307 -293290489 -300977738 985759048 1602785764 -409140394 1288791749 329956951 1573611767 1677410222 1499728063
REM
CELL 1.54180  100.00000  100.00000  100.00000   90.00000   90.00000   90.00000
LATT -1
SFAC C  
C      1  0.4433410000000  0.5426620000000  0.5135620000000 1.0
C      1  0.5135620000000  0.4433410000000  0.5426620000000 1.0
C      1  0.5426620000000  0.5135620000000  0.4433410000000 1.0
C      1  0.5566590000000  0.4573380000000  0.5135620000000 1.0
C      1  0.5566590000000  0.5426620000000  0.4864380000000 1.0
C      1  0.4433410000000  0.4573380000000  0.4864380000000 1.0
C      1  0.4864380000000  0.5566590000000  0.5426620000000 1.0
C      1  0.4864380000000  0.4433410000000  0.4573380000000 1.0
C      1  0.5135620000000  0.5566590000000  0.4573380000000 1.0
C      1  0.4573380000000  0.4864380000000  0.4433410000000 1.0
C      1  0.4573380000000  0.5135620000000  0.5566590000000 1.0
C      1  0.5426620000000  0.4864380000000  0.5566590000000 1.0
C      1  0.4433410000000  0.5426620000000  0.4864380000000 1.0
C      1  0.5135620000000  0.4433410000000  0.4573380000000 1.0
C      1  0.5426620000000  0.5135620000000  0.5566590000000 1.0
C      1  0.5566590000000  0.4573380000000  0.4864380000000 1.0
C      1  0.5566590000000  0.5426620000000  0.5135620000000 1.0
C      1  0.4433410000000  0.4573380000000  0.5135620000000 1.0
C      1  0.4864380000000  0.5566590000000  0.4573380000000 1.0
C      1  0.4864380000000  0.4433410000000  0.5426620000000 1.0
C      1  0.5135620000000  0.5566590000000  0.5426620000000 1.0
C      1  0.4573380000000  0.4864380000000  0.5566590000000 1.0
C      1  0.4573380000000  0.5135620000000  0.4433410000000 1.0
C      1  0.5426620000000  0.4864380000000  0.4433410000000 1.0
C      1  0.5489630000000  0.5540020000000  0.4928780000000 1.0
C      1  0.4928780000000  0.5489630000000  0.5540020000000 1.0
C      1  0.5540020000000  0.4928780000000  0.5489630000000 1.0
C      1  0.4510370000000  0.4459980000000  0.4928780000000 1.0
C      1  0.4510370000000  0.5540020000000  0.5071220000000 1.0
C      1  0.5489630000000  0.4459980000000  0.5071220000000 1.0
C      1  0.5071220000000  0.4510370000000  0.5540020000000 1.0
C      1  0.5071220000000  0.5489630000000  0.4459980000000 1.0
C      1  0.4928780000000  0.4510370000000  0.4459980000000 1.0
C      1  0.4459980000000  0.5071220000000  0.5489630000000 1.0
C      1  0.4459980000000  0.4928780000000  0.4510370000000 1.0
C      1  0.5540020000000  0.5071220000000  0.4510370000000 1.0
C      1  0.5489630000000  0.5540020000000  0.5071220000000 1.0
C      1  0.4928780000000  0.5489630000000  0.4459980000000 1.0
C      1  0.5540020000000  0.4928780000000  0.4510370000000 1.0
C      1  0.4510370000000  0.4459980000000  0.5071220000000 1.0
C      1  0.4510370000000  0.5540020000000  0.4928780000000 1.0
C      1  0.5489630000000  0.4459980000000  0.4928780000000 1.0
C      1  0.5071220000000  0.4510370000000  0.4459980000000 1.0
C      1  0.5071220000000  0.5489630000000  0.5540020000000 1.0
C      1  0.4928780000000  0.4510370000000  0.5540020000000 1.0
C      1  0.4459980000000  0.5071220000000  0.4510370000000 1.0
C      1  0.4459980000000  0.4928780000000  0.5489630000000 1.0
C      1  0.5540020000000  0.5071220000000  0.5489630000000 1.0
C      1  0.5076550000000  0.4856330000000  0.5197240000000 1.0
C      1  0.5197240000000  0.5076550000000  0.4856330000000 1.0
C      1  0.4856330000000  0.5197240000000  0.5076550000000 1.0
C      1  0.4923450000000  0.5143670000000  0.5197240000000 1.0
C      1  0.4923450000000  0.4856330000000  0.4802760000000 1.0
C      1  0.5076550000000  0.5143670000000  0.4802760000000 1.0
C      1  0.4802760000000  0.4923450000000  0.4856330000000 1.0
C      1  0.4802760000000  0.5076550000000  0.5143670000000 1.0
C      1  0.5197240000000  0.4923450000000  0.5143670000000 1.0
C      1  0.5143670000000  0.4802760000000  0.5076550000000 1.0
C      1  0.5143670000000  0.5197240000000  0.4923450000000 1.0
C      1  0.4856330000000  0.4802760000000  0.4923450000000 1.0
C      1  0.5076550000000  0.4856330000000  0.4802760000000 1.0
C      1  0.5197240000000  0.5076550000000  0.5143670000000 1.0
C      1  0.4856330000000  0.5197240000000  0.4923450000000 1.0
C      1  0.4923450000000  0.5143670000000  0.4802760000000 1.0
C      1  0.4923450000000  0.4856330000000  0.5197240000000 1.0
C      1  0.5076550000000  0.5143670000000  0.5197240000000 1.0
C      1  0.4802760000000  0.4923450000000  0.5143670000000 1.0
C      1  0.4802760000000  0.5076550000000  0.4856330000000 1.0
C      1  0.5197240000000  0.4923450000000  0.4856330000000 1.0
C      1  0.5143670000000  0.4802760000000  0.4923450000000 1.0
C      1  0.5143670000000  0.5197240000000  0.5076550000000 1.0
C      1  0.4856330000000  0.4802760000000  0.5076550000000 1.0
C      1  0.5678880000000  0.5070420000000  0.4716360000000 1.0
C      1  0.4716360000000  0.5678880000000  0.5070420000000 1.0
C      1  0.5070420000000  0.4716360000000  0.5678880000000 1.0
C      1  0.4321120000000  0.4929580000000  0.4716360000000 1.0
C      1  0.4321120000000  0.5070420000000  0.5283640000000 1.0
C      1  0.5678880000000  0.4929580000000  0.5283640000000 1.0
C      1  0.5283640000000  0.4321120000000  0.5070420000000 1.0
C      1  0.5283640000000  0.5678880000000  0.4929580000000 1.0
C      1  0.4716360000000  0.4321120000000  0.4929580000000 1.0
C      1  0.4929580000000  0.5283640000000  0.5678880000000 1.0
C      1  0.4929580000000  0.4716360000000  0.4321120000000 1.0
C      1  0.5070420000000  0.5283640000000  0.4321120000000 1.0
C      1  0.5678880000000  0.5070420000000  0.5283640000000 1.0
C      1  0.4716360000000  0.5678880000000  0.4929580000000 1.0
C      1  0.5070420000000  0.4716360000000  0.4321120000000 1.0
C      1  0.4321120000000  0.4929580000000  0.5283640000000 1.0
C      1  0.4321120000000  0.5070420000000  0.4716360000000 1.0
C      1  0.5678880000000  0.4929580000000  0.4716360000000 1.0
C      1  0.5283640000000  0.4321120000000  0.4929580000000 1.0
C      1  0.5283640000000  0.5678880000000  0.5070420000000 1.0
C      1  0.4716360000000  0.4321120000000  0.5070420000000 1.0
C      1  0.4929580000000  0.5283640000000  0.4321120000000 1.0
C      1  0.4929580000000  0.4716360000000  0.5678880000000 1.0
C      1  0.5070420000000  0.5283640000000  0.5678880000000 1.0
C      1  0.5695360000000  0.4844560000000  0.5154860000000 1.0
C      1  0.5154860000000  0.5695360000000  0.4844560000000 1.0
C      1  0.4844560000000  0.5154860000000  0.5695360000000 1.0
C      1  0.4304640000000  0.5155440000000  0.5154860000000 1.0
C      1  0.4304640000000  0.4844560000000  0.4845140000000 1.0
C      1  0.5695360000000  0.5155440000000  0.4845140000000 1.0
C      1  0.4845140000000  0.4304640000000  0.4844560000000 1.0
C      1  0.4845140000000  0.5695360000000  0.5155440000000 1.0
C      1  0.5154860000000  0.4304640000000  0.5155440000000 1.0
C      1  0.5155440000000  0.4845140000000  0.5695360000000 1.0
C      1  0.5155440000000  0.5154860000000  0.4304640000000 1.0
C      1  0.4844560000000  0.4845140000000  0.4304640000000 1.0
C      1  0.5695360000000  0.4844560000000  0.4845140000000 1.0
C      1  0.5154860000000  0.5695360000000  0.5155440000000 1.0
C      1  0.4844560000000  0.5154860000000  0.4304640000000 1.0
C      1  0.4304640000000  0.5155440000000  0.4845140000000 1.0
C      1  0.4304640000000  0.4844560000000  0.5154860000000 1.0
C      1  0.5695360000000  0.5155440000000  0.5154860000000 1.0
C      1  0.4845140000000  0.4304640000000  0.5155440000000 1.0
C      1  0.4845140000000  0.5695360000000  0.4844560000000 1.0
C      1  0.5154860000000  0.4304640000000  0.4844560000000 1.0
C      1  0.5155440000000  0.4845140000000  0.4304640000000 1.0
C      1  0.5155440000000  0.5154860000000  0.5695360000000 1.0
C      1  0.4844560000000  0.4845140000000  0.5695360000000 1.0
C      1  0.5184950000000  0.5337170000000  0.5074660000000 1.0
C      1  0.5074660000000  0.5184950000000  0.5337170000000 1.0
C      1  0.5337170000000  0.5074660000000  0.5184950000000 1.0
C      1  0.4815050000000  0.4662830000000  0.5074660000000 1.0
C      1  0.4815050000000  0.5337170000000  0.4925340000000 1.0
C      1  0.5184950000000  0.4662830000000  0.4925340000000 1.0
C      1  0.4925340000000  0.4815050000000  0.5337170000000 1.0
C      1  0.4925340000000  0.5184950000000  0.4662830000000 1.0
C      1  0.5074660000000  0.4815050000000  0.4662830000000 1.0
C      1  0.4662830000000  0.4925340000000  0.5184950000000 1.0
C      1  0.4662830000000  0.5074660000000  0.4815050000000 1.0
C      1  0.5337170000000  0.4925340000000  0.4815050000000 1.0
C      1  0.5184950000000  0.5337170000000  0.4925340000000 1.0
C      1  0.5074660000000  0.5184950000000  0.4662830000000 1.0
C      1  0.5337170000000  0.5074660000000  0.4815050000000 1.0
C      1  0.4815050000000  0.4662830000000  0.4925340000000 1.0
C      1  0.4815050000000  0.5337170000000  0.5074660000000 1.0
C      1  0.5184950000000  0.4662830000000  0.5074660000000 1.0
C      1  0.4925340000000  0.4815050000000  0.4662830000000 1.0
C      1  0.4925340000000  0.5184950000000  0.5337170000000 1.0
C      1  0.5074660000000  0.4815050000000  0.5337170000000 1.0
C      1  0.4662830000000  0.4925340000000  0.4815050000000 1.0
C      1  0.4662830000000  0.5074660000000  0.5184950000000 1.0
C      1  0.5337170000000  0.4925340000000  0.5184950000000 1.0
C      1  0.5498500000000  0.5302660000000  0.5069280000000 1.0
C      1  0.5069280000000  0.5498500000000  0.5302660000000 1.0
C      1  0.5302660000000  0.5069280000000  0.5498500000000 1.0
C      1  0.4501500000000  0.4697340000000  0.5069280000000 1.0
C      1  0.4501500000000  0.5302660000000  0.4930720000000 1.0
C      1  0.5498500000000  0.4697340000000  0.4930720000000 1.0
C      1  0.4930720000000  0.4501500000000  0.5302660000000 1.0
C      1  0.4930720000000  0.5498500000000  0.4697340000000 1.0
C      1  0.5069280000000  0.4501500000000  0.4697340000000 1.0
C      1  0.4697340000000  0.4930720000000  0.5498500000000 1.0
C      1  0.4697340000000  0.5069280000000  0.4501500000000 1.0
C      1  0.5302660000000  0.4930720000000  0.4501500000000 1.0
C      1  0.5498500000000  0.5302660000000  0.4930720000000 1.0
C      1  0.5069280000000  0.5498500000000  0.4697340000000 1.0
C      1  0.5302660000000  0.5069280000000  0.4501500000000 1.0
C      1  0.4501500000000  0.4697340000000  0.4930720000000 1.0
C      1  0.4501500000000  0.5302660000000  0.5069280000000 1.0
C      1  0.5498500000000  0.4697340000000  0.5069280000000 1.0
C      1  0.4930720000000  0.4501500000000  0.4697340000000 1.0
C      1  0.4930720000000  0.5498500000000  0.5302660000000 1.0
C      1  0.5069280000000  0.4501500000000  0.5302660000000 1.0
C      1  0.4697340000000  0.4930720000000  0.4501500000000 1.0
C      1  0.4697340000000  0.5069280000000  0.5498500000000 1.0
C      1  0.5302660000000  0.4930720000000  0.5498500000000 1.0
C      1  0.5177700000000  0.5123840000000  0.4459320000000 1.0
C      1  0.4459320000000  0.5177700000000  0.5123840000000 1.0
C      1  0.5123840000000  0.4459320000000  0.5177700000000 1.0
C      1  0.4822300000000  0.4876160000000  0.4459320000000 1.0
C      1  0.4822300000000  0.5123840000000  0.5540680000000 1.0
C      1  0.5177700000000  0.4876160000000  0.5540680000000 1.0
C      1  0.5540680000000  0.4822300000000  0.5123840000000 1.0
C      1  0.5540680000000  0.5177700000000  0.4876160000000 1.0
C      1  0.4459320000000  0.4822300000000  0.4876160000000 1.0
C      1  0.4876160000000  0.5540680000000  0.5177700000000 1.0
C      1  0.4876160000000  0.4459320000000  0.4822300000000 1.0
C      1  0.5123840000000  0.5540680000000  0.4822300000000 1.0
C      1  0.5177700000000  0.5123840000000  0.5540680000000 1.0
C      1  0.4459320000000  0.5177700000000  0.4876160000000 1.0
C      1  0.5123840000000  0.4459320000000  0.4822300000000 1.0
C      1  0.4822300000000  0.4876160000000  0.5540680000000 1.0
C      1  0.4822300000000  0.5123840000000  0.4459320000000 1.0
C      1  0.5177700000000  0.4876160000000  0.4459320000000 1.0
C      1  0.5540680000000  0.4822300000000  0.4876160000000 1.0
C      1  0.5540680000000  0.5177700000000  0.5123840000000 1.0
C      1  0.4459320000000  0.4822300000000  0.5123840000000 1.0
C      1  0.4876160000000  0.5540680000000  0.4822300000000 1.0
C      1  0.4876160000000  0.4459320000000  0.5177700000000 1.0
C      1  0.5123840000000  0.5540680000000  0.5177700000000 1.0
C      1  0.5701270000000  0.5409680000000  0.5072570000000 1.0
C      1  0.5072570000000  0.5701270000000  0.5409680000000 1.0
C      1  0.5409680000000  0.5072570000000  0.5701270000000 1.0
C      1  0.4298730000000  0.4590320000000  0.5072570000000 1.0
C      1  0.4298730000000  0.5409680000000  0.4927430000000 1.0
C      1  0.5701270000000  0.4590320000000  0.4927430000000 1.0
C      1  0.4927430000000  0.4298730000000  0.5409680000000 1.0
C      1  0.4927430000000  0.5701270000000  0.4590320000000 1.0
C      1  0.5072570000000  0.4298730000000  0.4590320000000 1.0
C      1  0.4590320000000  0.4927430000000  0.5701270000000 1.0
C      1  0.4590320000000  0.5072570000000  0.4298730000000 1.0
C      1  0.5409680000000  0.4927430000000  0.4298730000000 1.0
C      1  0.5701270000000  0.5409680000000  0.4927430000000 1.0
C      1  0.5072570000000  0.5701270000000  0.4590320000000 1.0
C      1  0.5409680000000  0.5072570000000  0.4298730000000 1.0
C      1  0.4298730000000  0.4590320000000  0.4927430000000 1.0
C      1  0.4298730000000  0.5409680000000  0.5072570000000 1.0
C      1  0.5701270000000  0.4590320000000  0.5072570000000 1.0
C      1  0.4927430000000  0.4298730000000  0.4590320000000 1.0
C      1  0.4927430000000  0.5701270000000  0.5409680000000 1.0
C      1  0.5072570000000  0.4298730000000  0.5409680000000 1.0
C      1  0.4590320000000  0.4927430000000  0.4298730000000 1.0
C      1  0.4590320000000  0.5072570000000  0.5701270000000 1.0
C      1  0.5409680000000  0.4927430000000  0.5701270000000 1.0
C      1  0.4242920000000  0.5275640000000  0.5073250000000 1.0
C      1  0.5073250000000  0.4242920000000  0.5275640000000 1.0
C      1  0.5275640000000  0.5073250000000  0.4242920000000 1.0
C      1  0.5757080000000  0.4724360000000  0.5073250000000 1.0
C      1  0.5757080000000  0.5275640000000  0.4926750000000 1.0
C      1  0.4242920000000  0.4724360000000  0.4926750000000 1.0
C      1  0.4926750000000  0.5757080000000  0.5275640000000 1.0
C      1  0.4926750000000  0.4242920000000  0.4724360000000 1.0
C      1  0.5073250000000  0.5757080000000  0.4724360000000 1.0
C      1  0.4724360000000  0.4926750000000  0.4242920000000 1.0
C      1  0.4724360000000  0.5073250000000  0.5757080000000 1.0
C      1  0.5275640000000  0.4926750000000  0.5757080000000 1.0
C      1  0.4242920000000  0.5275640000000  0.4926750000000 1.0
C      1  0.5073250000000  0.4242920000000  0.4724360000000 1.0
C      1  0.5275640000000  0.5073250000000  0.5757080000000 1.0
C      1  0.5757080000000  0.4724360000000  0.4926750000000 1.0
C      1  0.5757080000000  0.5275640000000  0.5073250000000 1.0
C      1  0.4242920000000  0.4724360000000  0.5073250000000 1.0
C      1  0.4926750000000  0.5757080000000  0.4724360000000 1.0
C      1  0.4926750000000  0.4242920000000  0.5275640000000 1.0
C      1  0.5073250000000  0.5757080000000  0.5275640000000 1.0
C      1  0.4724360000000  0.4926750000000  0.5757080000000 1.0
C      1  0.4724360000000  0.5073250000000  0.4242920000000 1.0
C      1  0.5275640000000  0.4926750000000  0.4242920000000 1.0
C      1  0.5352170000000  0.4425770000000  0.5277210000000 1.0
C      1  0.5277210000000  0.5352170000000  0.4425770000000 1.0
C      1  0.4425770000000  0.5277210000000  0.5352170000000 1.0
C      1  0.4647830000000  0.5574230000000  0.5277210000000 1.0
C      1  0.4647830000000  0.4425770000000  0.4722790000000 1.0
C      1  0.5352170000000  0.5574230000000  0.4722790000000 1.0
C      1  0.4722790000000  0.4647830000000  0.4425770000000 1.0
C      1  0.4722790000000  0.5352170000000  0.5574230000000 1.0
C      1  0.5277210000000  0.4647830000000  0.5574230000000 1.0
C      1  0.5574230000000  0.4722790000000  0.5352170000000 1.0
C      1  0.5574230000000  0.5277210000000  0.4647830000000 1.0
C      1  0.4425770000000  0.4722790000000  0.4647830000000 1.0
C      1  0.5352170000000  0.4425770000000  0.4722790000000 1.0
C      1  0.5277210000000  0.5352170000000  0.5574230000000 1.0
C      1  0.4425770000000  0.5277210000000  0.4647830000000 1.0
C      1  0.4647830000000  0.5574230000000  0.4722790000000 1.0
C      1  0.4647830000000  0.4425770000000  0.5277210000000 1.0
C      1  0.5352170000000  0.5574230000000  0.5277210000000 1.0
C      1  0.4722790000000  0.4647830000000  0.5574230000000 1.0
C      1  0.4722790000000  0.5352170000000  0.4425770000000 1.0
C      1  0.5277210000000  0.4647830000000  0.4425770000000 1.0
C      1  0.5574230000000  0.4722790000000  0.4647830000000 1.0
C      1  0.5574230000000  0.5277210000000  0.5352170000000 1.0
C      1  0.4425770000000  0.4722790000000  0.5352170000000 1.0
C      1  0.5777010000000  0.5071520000000  0.4928530000000 1.0
C      1  0.4928530000000  0.5777010000000  0.5071520000000 1.0
C      1  0.5071520000000  0.4928530000000  0.5777010000000 1.0
C      1  0.4222990000000  0.4928480000000  0.4928530000000 1.0
C      1  0.4222990000000  0.5071520000000  0.5071470000000 1.0
C      1  0.5777010000000  0.4928480000000  0.5071470000000 1.0
C      1  0.5071470000000  0.4222990000000  0.5071520000000 1.0
C      1  0.5071470000000  0.5777010000000  0.4928480000000 1.0
C      1  0.4928530000000  0.4222990000000  0.4928480000000 1.0
C      1  0.4928480000000  0.5071470000000  0.5777010000000 1.0
C      1  0.4928480000000  0.4928530000000  0.4222990000000 1.0
C      1  0.5071520000000  0.5071470000000  0.4222990000000 1.0
C      1  0.5777010000000  0.5071520000000  0.5071470000000 1.0
C      1  0.4928530000000  0.5777010000000  0.4928480000000 1.0
C      1  0.5071520000000  0.4928530000000  0.4222990000000 1.0
C      1  0.4222990000000  0.4928480000000  0.5071470000000 1.0
C      1  0.4222990000000  0.5071520000000  0.4928530000000 1.0
C      1  0.5777010000000  0.4928480000000  0.4928530000000 1.0
C      1  0.5071470000000  0.4222990000000  0.4928480000000 1.0
C      1  0.5071470000000  0.5777010000000  0.5071520000000 1.0
C      1  0.4928530000000  0.4222990000000  0.5071520000000 1.0
C      1  0.4928480000000  0.5071470000000  0.4222990000000 1.0
C      1  0.4928480000000  0.4928530000000  0.5777010000000 1.0
C      1  0.5071520000000  0.5071470000000  0.5777010000000 1.0
C      1  0.5383350000000  0.5604300000000  0.5140140000000 1.0
C      1  0.5140140000000  0.5383350000000  0.5604300000000 1.0
C      1  0.5604300000000  0.5140140000000  0.5383350000000 1.0
C      1  0.4616650000000  0.4395700000000  0.5140140000000 1.0
C      1  0.4616650000000  0.5604300000000  0.4859860000000 1.0
C      1  0.5383350000000  0.4395700000000  0.4859860000000 1.0
C      1  0.4859860000000  0.4616650000000  0.5604300000000 1.0
C      1  0.4859860000000  0.5383350000000  0.4395700000000 1.0
C      1  0.5140140000000  0.4616650000000  0.4395700000000 1.0
C      1  0.4395700000000  0.4859860000000  0.5383350000000 1.0
C      1  0.4395700000000  0.5140140000000  0.4616650000000 1.0
C      1  0.5604300000000  0.4859860000000  0.4616650000000 1.0
C      1  0.5383350000000  0.5604300000000  0.4859860000000 1.0
C      1  0.5140140000000  0.5383350000000  0.4395700000000 1.0
C      1  0.5604300000000  0.5140140000000  0.4616650000000 1.0
C      1  0.4616650000000  0.4395700000000  0.4859860000000 1.0
C      1  0.4616650000000  0.5604300000000  0.5140140000000 1.0
C      1  0.5383350000000  0.4395700000000  0.5140140000000 1.0
C      1  0.4859860000000  0.4616650000000  0.4395700000000 1.0
C      1  0.4859860000000  0.5383350000000  0.5604300000000 1.0
C      1  0.5140140000000  0.4616650000000  0.5604300000000 1.0
C      1  0.4395700000000  0.4859860000000  0.4616650000000 1.0
C      1  0.4395700000000  0.5140140000000  0.5383350000000 1.0
C      1  0.5604300000000  0.4859860000000  0.5383350000000 1.0
C      1  0.4554380000000  0.5081420000000  0.4917000000000 1.0
C      1  0.4917000000000  0.4554380000000  0.5081420000000 1.0
C      1  0.5081420000000  0.4917000000000  0.4554380000000 1.0
C      1  0.5445620000000  0.4918580000000  0.4917000000000 1.0
C      1  0.5445620000000  0.5081420000000  0.5083000000000 1.0
C      1  0.4554380000000  0.4918580000000  0.5083000000000 1.0
C      1  0.5083000000000  0.5445620000000  0.5081420000000 1.0
C      1  0.5083000000000  0.4554380000000  0.4918580000000 1.0
C      1  0.4917000000000  0.5445620000000  0.4918580000000 1.0
C      1  0.4918580000000  0.5083000000000  0.4554380000000 1.0
C      1  0.4918580000000  0.4917000000000  0.5445620000000 1.0
C      1  0.5081420000000  0.5083000000000  0.5445620000000 1.0
C      1  0.4554380000000  0.5081420000000  0.5083000000000 1.0
C      1  0.4917000000000  0.4554380000000  0.4918580000000 1.0
C      1  0.5081420000000  0.4917000000000  0.5445620000000 1.0
C      1  0.5445620000000  0.4918580000000  0.5083000000000 1.0
C      1  0.5445620000000  0.5081420000000  0.4917000000000 1.0
C      1  0.4554380000000  0.4918580000000  0.4917000000000 1.0
C      1  0.5083000000000  0.5445620000000  0.4918580000000 1.0
C      1  0.5083000000000  0.4554380000000  0.5081420000000 1.0
C      1  0.4917000000000  0.5445620000000  0.5081420000000 1.0
C      1  0.4918580000000  0.5083000000000  0.5445620000000 1.0
C      1  0.4918580000000  0.4917000000000  0.4554380000000 1.0
C      1  0.5081420000000  0.5083000000000  0.4554380000000 1.0
C      1  0.4624710000000  0.4723760000000  0.4428700000000 1.0
C      1  0.4428700000000  0.4624710000000  0.4723760000000 1.0
C      1  0.4723760000000  0.4428700000000  0.4624710000000 1.0
C      1  0.5375290000000  0.5276240000000  0.4428700000000 1.0
C      1  0.5375290000000  0.4723760000000  0.5571300000000 1.0
C      1  0.4624710000000  0.5276240000000  0.5571300000000 1.0
C      1  0.5571300000000  0.5375290000000  0.4723760000000 1.0
C      1  0.5571300000000  0.4624710000000  0.5276240000000 1.0
C      1  0.4428700000000  0.5375290000000  0.5276240000000 1.0
C      1  0.5276240000000  0.5571300000000  0.4624710000000 1.0
C      1  0.5276240000000  0.4428700000000  0.5375290000000 1.0
C      1  0.4723760000000  0.5571300000000  0.5375290000000 1.0
C      1  0.4624710000000  0.4723760000000  0.5571300000000 1.0
C      1  0.4428700000000  0.4624710000000  0.5276240000000 1.0
C      1  0.4723760000000  0.4428700000000  0.5375290000000 1.0
C      1  0.5375290000000  0.5276240000000  0.5571300000000 1.0
C      1  0.5375290000000  0.4723760000000  0.4428700000000 1.0
C      1  0.4624710000000  0.5276240000000  0.4428700000000 1.0
C      1  0.5571300000000  0.5375290000000  0.5276240000000 1.0
C      1  0.5571300000000  0.4624710000000  0.4723760000000 1.0
C      1  0.4428700000000  0.5375290000000  0.4723760000000 1.0
C      1  0.5276240000000  0.5571300000000  0.5375290000000 1.0
C      1  0.5276240000000  0.4428700000000  0.4624710000000 1.0
C      1  0.4723760000000  0.5571300000000  0.4624710000000 1.0
END
