TITL C-1892083-4185-50 -7.38183008592931e-07 1000000 -2057.77282022815 0 0 300 (Th) n - 1
REM
REM in /nfs/bkarasulu/CARBON/AIRSS/Generating-Clusters/GAP-ML-2020/Higher-Symm/Selected-Sizes/TryA-Only_Ih-Symm/Larger-Clusters
REM
REM
REM
REM
REM
REM ./C.cell (2cf5181f0f1d4d5b12b972d32ad12063)
REM
REM compiler GCC version 9.2.1 20190827 (Red Hat 9.2.1-1)
REM options -cpp -mtune=generic -march=x86-64 -g -O0 -fpre-include=/usr/include/finclude/math-vector-fortran.h
REM seed -50158881 1687546487 511250407 1027117427 687034756 -275020172 891380558 1720391703 -484414292 214002097 -1591668193 -489481475 -337685857 493126436 558285909 -294634070 544248528 1720410375 1390846274 60518252 -592534506 88392701 520724027 1937955322 -1510863634 -846427165 1467628449 -298019969 1407206346 1917607805 -1421515608 -15920389 1739795275
REM
CELL 1.54180  100.00000  100.00000  100.00000   90.00000   90.00000   90.00000
LATT -1
SFAC C  
C      1  0.5135120000000  0.4928210000000  0.4798960000000 1.0
C      1  0.4928210000000  0.4798960000000  0.5135120000000 1.0
C      1  0.4798960000000  0.5135120000000  0.4928210000000 1.0
C      1  0.4864880000000  0.5071790000000  0.4798960000000 1.0
C      1  0.5135120000000  0.5071790000000  0.5201040000000 1.0
C      1  0.4864880000000  0.4928210000000  0.5201040000000 1.0
C      1  0.5071790000000  0.5201040000000  0.5135120000000 1.0
C      1  0.4928210000000  0.5201040000000  0.4864880000000 1.0
C      1  0.5071790000000  0.4798960000000  0.4864880000000 1.0
C      1  0.5201040000000  0.4864880000000  0.4928210000000 1.0
C      1  0.4798960000000  0.4864880000000  0.5071790000000 1.0
C      1  0.5201040000000  0.5135120000000  0.5071790000000 1.0
C      1  0.5135120000000  0.4928210000000  0.5201040000000 1.0
C      1  0.4928210000000  0.4798960000000  0.4864880000000 1.0
C      1  0.4798960000000  0.5135120000000  0.5071790000000 1.0
C      1  0.4864880000000  0.5071790000000  0.5201040000000 1.0
C      1  0.5135120000000  0.5071790000000  0.4798960000000 1.0
C      1  0.4864880000000  0.4928210000000  0.4798960000000 1.0
C      1  0.5071790000000  0.5201040000000  0.4864880000000 1.0
C      1  0.4928210000000  0.5201040000000  0.5135120000000 1.0
C      1  0.5071790000000  0.4798960000000  0.5135120000000 1.0
C      1  0.5201040000000  0.4864880000000  0.5071790000000 1.0
C      1  0.4798960000000  0.4864880000000  0.4928210000000 1.0
C      1  0.5201040000000  0.5135120000000  0.4928210000000 1.0
C      1  0.5532270000000  0.4726170000000  0.4716140000000 1.0
C      1  0.4726170000000  0.4716140000000  0.5532270000000 1.0
C      1  0.4716140000000  0.5532270000000  0.4726170000000 1.0
C      1  0.4467730000000  0.5273830000000  0.4716140000000 1.0
C      1  0.5532270000000  0.5273830000000  0.5283860000000 1.0
C      1  0.4467730000000  0.4726170000000  0.5283860000000 1.0
C      1  0.5273830000000  0.5283860000000  0.5532270000000 1.0
C      1  0.4726170000000  0.5283860000000  0.4467730000000 1.0
C      1  0.5273830000000  0.4716140000000  0.4467730000000 1.0
C      1  0.5283860000000  0.4467730000000  0.4726170000000 1.0
C      1  0.4716140000000  0.4467730000000  0.5273830000000 1.0
C      1  0.5283860000000  0.5532270000000  0.5273830000000 1.0
C      1  0.5532270000000  0.4726170000000  0.5283860000000 1.0
C      1  0.4726170000000  0.4716140000000  0.4467730000000 1.0
C      1  0.4716140000000  0.5532270000000  0.5273830000000 1.0
C      1  0.4467730000000  0.5273830000000  0.5283860000000 1.0
C      1  0.5532270000000  0.5273830000000  0.4716140000000 1.0
C      1  0.4467730000000  0.4726170000000  0.4716140000000 1.0
C      1  0.5273830000000  0.5283860000000  0.4467730000000 1.0
C      1  0.4726170000000  0.5283860000000  0.5532270000000 1.0
C      1  0.5273830000000  0.4716140000000  0.5532270000000 1.0
C      1  0.5283860000000  0.4467730000000  0.5273830000000 1.0
C      1  0.4716140000000  0.4467730000000  0.4726170000000 1.0
C      1  0.5283860000000  0.5532270000000  0.4726170000000 1.0
C      1  0.5078760000000  0.4925910000000  0.4471100000000 1.0
C      1  0.4925910000000  0.4471100000000  0.5078760000000 1.0
C      1  0.4471100000000  0.5078760000000  0.4925910000000 1.0
C      1  0.4921240000000  0.5074090000000  0.4471100000000 1.0
C      1  0.5078760000000  0.5074090000000  0.5528900000000 1.0
C      1  0.4921240000000  0.4925910000000  0.5528900000000 1.0
C      1  0.5074090000000  0.5528900000000  0.5078760000000 1.0
C      1  0.4925910000000  0.5528900000000  0.4921240000000 1.0
C      1  0.5074090000000  0.4471100000000  0.4921240000000 1.0
C      1  0.5528900000000  0.4921240000000  0.4925910000000 1.0
C      1  0.4471100000000  0.4921240000000  0.5074090000000 1.0
C      1  0.5528900000000  0.5078760000000  0.5074090000000 1.0
C      1  0.5078760000000  0.4925910000000  0.5528900000000 1.0
C      1  0.4925910000000  0.4471100000000  0.4921240000000 1.0
C      1  0.4471100000000  0.5078760000000  0.5074090000000 1.0
C      1  0.4921240000000  0.5074090000000  0.5528900000000 1.0
C      1  0.5078760000000  0.5074090000000  0.4471100000000 1.0
C      1  0.4921240000000  0.4925910000000  0.4471100000000 1.0
C      1  0.5074090000000  0.5528900000000  0.4921240000000 1.0
C      1  0.4925910000000  0.5528900000000  0.5078760000000 1.0
C      1  0.5074090000000  0.4471100000000  0.5078760000000 1.0
C      1  0.5528900000000  0.4921240000000  0.5074090000000 1.0
C      1  0.4471100000000  0.4921240000000  0.4925910000000 1.0
C      1  0.5528900000000  0.5078760000000  0.4925910000000 1.0
C      1  0.4817760000000  0.4576830000000  0.4916460000000 1.0
C      1  0.4576830000000  0.4916460000000  0.4817760000000 1.0
C      1  0.4916460000000  0.4817760000000  0.4576830000000 1.0
C      1  0.5182240000000  0.5423170000000  0.4916460000000 1.0
C      1  0.4817760000000  0.5423170000000  0.5083540000000 1.0
C      1  0.5182240000000  0.4576830000000  0.5083540000000 1.0
C      1  0.5423170000000  0.5083540000000  0.4817760000000 1.0
C      1  0.4576830000000  0.5083540000000  0.5182240000000 1.0
C      1  0.5423170000000  0.4916460000000  0.5182240000000 1.0
C      1  0.5083540000000  0.5182240000000  0.4576830000000 1.0
C      1  0.4916460000000  0.5182240000000  0.5423170000000 1.0
C      1  0.5083540000000  0.4817760000000  0.5423170000000 1.0
C      1  0.4817760000000  0.4576830000000  0.5083540000000 1.0
C      1  0.4576830000000  0.4916460000000  0.5182240000000 1.0
C      1  0.4916460000000  0.4817760000000  0.5423170000000 1.0
C      1  0.5182240000000  0.5423170000000  0.5083540000000 1.0
C      1  0.4817760000000  0.5423170000000  0.4916460000000 1.0
C      1  0.5182240000000  0.4576830000000  0.4916460000000 1.0
C      1  0.5423170000000  0.5083540000000  0.5182240000000 1.0
C      1  0.4576830000000  0.5083540000000  0.4817760000000 1.0
C      1  0.5423170000000  0.4916460000000  0.4817760000000 1.0
C      1  0.5083540000000  0.5182240000000  0.5423170000000 1.0
C      1  0.4916460000000  0.5182240000000  0.4576830000000 1.0
C      1  0.5083540000000  0.4817760000000  0.4576830000000 1.0
C      1  0.4678710000000  0.5169880000000  0.5132100000000 1.0
C      1  0.5169880000000  0.5132100000000  0.4678710000000 1.0
C      1  0.5132100000000  0.4678710000000  0.5169880000000 1.0
C      1  0.5321290000000  0.4830120000000  0.5132100000000 1.0
C      1  0.4678710000000  0.4830120000000  0.4867900000000 1.0
C      1  0.5321290000000  0.5169880000000  0.4867900000000 1.0
C      1  0.4830120000000  0.4867900000000  0.4678710000000 1.0
C      1  0.5169880000000  0.4867900000000  0.5321290000000 1.0
C      1  0.4830120000000  0.5132100000000  0.5321290000000 1.0
C      1  0.4867900000000  0.5321290000000  0.5169880000000 1.0
C      1  0.5132100000000  0.5321290000000  0.4830120000000 1.0
C      1  0.4867900000000  0.4678710000000  0.4830120000000 1.0
C      1  0.4678710000000  0.5169880000000  0.4867900000000 1.0
C      1  0.5169880000000  0.5132100000000  0.5321290000000 1.0
C      1  0.5132100000000  0.4678710000000  0.4830120000000 1.0
C      1  0.5321290000000  0.4830120000000  0.4867900000000 1.0
C      1  0.4678710000000  0.4830120000000  0.5132100000000 1.0
C      1  0.5321290000000  0.5169880000000  0.5132100000000 1.0
C      1  0.4830120000000  0.4867900000000  0.5321290000000 1.0
C      1  0.5169880000000  0.4867900000000  0.4678710000000 1.0
C      1  0.4830120000000  0.5132100000000  0.4678710000000 1.0
C      1  0.4867900000000  0.5321290000000  0.4830120000000 1.0
C      1  0.5132100000000  0.5321290000000  0.5169880000000 1.0
C      1  0.4867900000000  0.4678710000000  0.5169880000000 1.0
C      1  0.4631400000000  0.5360720000000  0.5463460000000 1.0
C      1  0.5360720000000  0.5463460000000  0.4631400000000 1.0
C      1  0.5463460000000  0.4631400000000  0.5360720000000 1.0
C      1  0.5368600000000  0.4639280000000  0.5463460000000 1.0
C      1  0.4631400000000  0.4639280000000  0.4536540000000 1.0
C      1  0.5368600000000  0.5360720000000  0.4536540000000 1.0
C      1  0.4639280000000  0.4536540000000  0.4631400000000 1.0
C      1  0.5360720000000  0.4536540000000  0.5368600000000 1.0
C      1  0.4639280000000  0.5463460000000  0.5368600000000 1.0
C      1  0.4536540000000  0.5368600000000  0.5360720000000 1.0
C      1  0.5463460000000  0.5368600000000  0.4639280000000 1.0
C      1  0.4536540000000  0.4631400000000  0.4639280000000 1.0
C      1  0.4631400000000  0.5360720000000  0.4536540000000 1.0
C      1  0.5360720000000  0.5463460000000  0.5368600000000 1.0
C      1  0.5463460000000  0.4631400000000  0.4639280000000 1.0
C      1  0.5368600000000  0.4639280000000  0.4536540000000 1.0
C      1  0.4631400000000  0.4639280000000  0.5463460000000 1.0
C      1  0.5368600000000  0.5360720000000  0.5463460000000 1.0
C      1  0.4639280000000  0.4536540000000  0.5368600000000 1.0
C      1  0.5360720000000  0.4536540000000  0.4631400000000 1.0
C      1  0.4639280000000  0.5463460000000  0.4631400000000 1.0
C      1  0.4536540000000  0.5368600000000  0.4639280000000 1.0
C      1  0.5463460000000  0.5368600000000  0.5360720000000 1.0
C      1  0.4536540000000  0.4631400000000  0.5360720000000 1.0
C      1  0.4878630000000  0.5716010000000  0.4796780000000 1.0
C      1  0.5716010000000  0.4796780000000  0.4878630000000 1.0
C      1  0.4796780000000  0.4878630000000  0.5716010000000 1.0
C      1  0.5121370000000  0.4283990000000  0.4796780000000 1.0
C      1  0.4878630000000  0.4283990000000  0.5203220000000 1.0
C      1  0.5121370000000  0.5716010000000  0.5203220000000 1.0
C      1  0.4283990000000  0.5203220000000  0.4878630000000 1.0
C      1  0.5716010000000  0.5203220000000  0.5121370000000 1.0
C      1  0.4283990000000  0.4796780000000  0.5121370000000 1.0
C      1  0.5203220000000  0.5121370000000  0.5716010000000 1.0
C      1  0.4796780000000  0.5121370000000  0.4283990000000 1.0
C      1  0.5203220000000  0.4878630000000  0.4283990000000 1.0
C      1  0.4878630000000  0.5716010000000  0.5203220000000 1.0
C      1  0.5716010000000  0.4796780000000  0.5121370000000 1.0
C      1  0.4796780000000  0.4878630000000  0.4283990000000 1.0
C      1  0.5121370000000  0.4283990000000  0.5203220000000 1.0
C      1  0.4878630000000  0.4283990000000  0.4796780000000 1.0
C      1  0.5121370000000  0.5716010000000  0.4796780000000 1.0
C      1  0.4283990000000  0.5203220000000  0.5121370000000 1.0
C      1  0.5716010000000  0.5203220000000  0.4878630000000 1.0
C      1  0.4283990000000  0.4796780000000  0.4878630000000 1.0
C      1  0.5203220000000  0.5121370000000  0.4283990000000 1.0
C      1  0.4796780000000  0.5121370000000  0.5716010000000 1.0
C      1  0.5203220000000  0.4878630000000  0.5716010000000 1.0
C      1  0.5169890000000  0.5612790000000  0.4700270000000 1.0
C      1  0.5612790000000  0.4700270000000  0.5169890000000 1.0
C      1  0.4700270000000  0.5169890000000  0.5612790000000 1.0
C      1  0.4830110000000  0.4387210000000  0.4700270000000 1.0
C      1  0.5169890000000  0.4387210000000  0.5299730000000 1.0
C      1  0.4830110000000  0.5612790000000  0.5299730000000 1.0
C      1  0.4387210000000  0.5299730000000  0.5169890000000 1.0
C      1  0.5612790000000  0.5299730000000  0.4830110000000 1.0
C      1  0.4387210000000  0.4700270000000  0.4830110000000 1.0
C      1  0.5299730000000  0.4830110000000  0.5612790000000 1.0
C      1  0.4700270000000  0.4830110000000  0.4387210000000 1.0
C      1  0.5299730000000  0.5169890000000  0.4387210000000 1.0
C      1  0.5169890000000  0.5612790000000  0.5299730000000 1.0
C      1  0.5612790000000  0.4700270000000  0.4830110000000 1.0
C      1  0.4700270000000  0.5169890000000  0.4387210000000 1.0
C      1  0.4830110000000  0.4387210000000  0.5299730000000 1.0
C      1  0.5169890000000  0.4387210000000  0.4700270000000 1.0
C      1  0.4830110000000  0.5612790000000  0.4700270000000 1.0
C      1  0.4387210000000  0.5299730000000  0.4830110000000 1.0
C      1  0.5612790000000  0.5299730000000  0.5169890000000 1.0
C      1  0.4387210000000  0.4700270000000  0.5169890000000 1.0
C      1  0.5299730000000  0.4830110000000  0.4387210000000 1.0
C      1  0.4700270000000  0.4830110000000  0.5612790000000 1.0
C      1  0.5299730000000  0.5169890000000  0.5612790000000 1.0
C      1  0.5480140000000  0.4857710000000  0.5310130000000 1.0
C      1  0.4857710000000  0.5310130000000  0.5480140000000 1.0
C      1  0.5310130000000  0.5480140000000  0.4857710000000 1.0
C      1  0.4519860000000  0.5142290000000  0.5310130000000 1.0
C      1  0.5480140000000  0.5142290000000  0.4689870000000 1.0
C      1  0.4519860000000  0.4857710000000  0.4689870000000 1.0
C      1  0.5142290000000  0.4689870000000  0.5480140000000 1.0
C      1  0.4857710000000  0.4689870000000  0.4519860000000 1.0
C      1  0.5142290000000  0.5310130000000  0.4519860000000 1.0
C      1  0.4689870000000  0.4519860000000  0.4857710000000 1.0
C      1  0.5310130000000  0.4519860000000  0.5142290000000 1.0
C      1  0.4689870000000  0.5480140000000  0.5142290000000 1.0
C      1  0.5480140000000  0.4857710000000  0.4689870000000 1.0
C      1  0.4857710000000  0.5310130000000  0.4519860000000 1.0
C      1  0.5310130000000  0.5480140000000  0.5142290000000 1.0
C      1  0.4519860000000  0.5142290000000  0.4689870000000 1.0
C      1  0.5480140000000  0.5142290000000  0.5310130000000 1.0
C      1  0.4519860000000  0.4857710000000  0.5310130000000 1.0
C      1  0.5142290000000  0.4689870000000  0.4519860000000 1.0
C      1  0.4857710000000  0.4689870000000  0.5480140000000 1.0
C      1  0.5142290000000  0.5310130000000  0.5480140000000 1.0
C      1  0.4689870000000  0.4519860000000  0.5142290000000 1.0
C      1  0.5310130000000  0.4519860000000  0.4857710000000 1.0
C      1  0.4689870000000  0.5480140000000  0.4857710000000 1.0
C      1  0.5455220000000  0.4927820000000  0.5428440000000 1.0
C      1  0.4927820000000  0.5428440000000  0.5455220000000 1.0
C      1  0.5428440000000  0.5455220000000  0.4927820000000 1.0
C      1  0.4544780000000  0.5072180000000  0.5428440000000 1.0
C      1  0.5455220000000  0.5072180000000  0.4571560000000 1.0
C      1  0.4544780000000  0.4927820000000  0.4571560000000 1.0
C      1  0.5072180000000  0.4571560000000  0.5455220000000 1.0
C      1  0.4927820000000  0.4571560000000  0.4544780000000 1.0
C      1  0.5072180000000  0.5428440000000  0.4544780000000 1.0
C      1  0.4571560000000  0.4544780000000  0.4927820000000 1.0
C      1  0.5428440000000  0.4544780000000  0.5072180000000 1.0
C      1  0.4571560000000  0.5455220000000  0.5072180000000 1.0
C      1  0.5455220000000  0.4927820000000  0.4571560000000 1.0
C      1  0.4927820000000  0.5428440000000  0.4544780000000 1.0
C      1  0.5428440000000  0.5455220000000  0.5072180000000 1.0
C      1  0.4544780000000  0.5072180000000  0.4571560000000 1.0
C      1  0.5455220000000  0.5072180000000  0.5428440000000 1.0
C      1  0.4544780000000  0.4927820000000  0.5428440000000 1.0
C      1  0.5072180000000  0.4571560000000  0.4544780000000 1.0
C      1  0.4927820000000  0.4571560000000  0.5455220000000 1.0
C      1  0.5072180000000  0.5428440000000  0.5455220000000 1.0
C      1  0.4571560000000  0.4544780000000  0.5072180000000 1.0
C      1  0.5428440000000  0.4544780000000  0.4927820000000 1.0
C      1  0.4571560000000  0.5455220000000  0.4927820000000 1.0
C      1  0.5131550000000  0.4328550000000  0.4930930000000 1.0
C      1  0.4328550000000  0.4930930000000  0.5131550000000 1.0
C      1  0.4930930000000  0.5131550000000  0.4328550000000 1.0
C      1  0.4868450000000  0.5671450000000  0.4930930000000 1.0
C      1  0.5131550000000  0.5671450000000  0.5069070000000 1.0
C      1  0.4868450000000  0.4328550000000  0.5069070000000 1.0
C      1  0.5671450000000  0.5069070000000  0.5131550000000 1.0
C      1  0.4328550000000  0.5069070000000  0.4868450000000 1.0
C      1  0.5671450000000  0.4930930000000  0.4868450000000 1.0
C      1  0.5069070000000  0.4868450000000  0.4328550000000 1.0
C      1  0.4930930000000  0.4868450000000  0.5671450000000 1.0
C      1  0.5069070000000  0.5131550000000  0.5671450000000 1.0
C      1  0.5131550000000  0.4328550000000  0.5069070000000 1.0
C      1  0.4328550000000  0.4930930000000  0.4868450000000 1.0
C      1  0.4930930000000  0.5131550000000  0.5671450000000 1.0
C      1  0.4868450000000  0.5671450000000  0.5069070000000 1.0
C      1  0.5131550000000  0.5671450000000  0.4930930000000 1.0
C      1  0.4868450000000  0.4328550000000  0.4930930000000 1.0
C      1  0.5671450000000  0.5069070000000  0.4868450000000 1.0
C      1  0.4328550000000  0.5069070000000  0.5131550000000 1.0
C      1  0.5671450000000  0.4930930000000  0.5131550000000 1.0
C      1  0.5069070000000  0.4868450000000  0.5671450000000 1.0
C      1  0.4930930000000  0.4868450000000  0.4328550000000 1.0
C      1  0.5069070000000  0.5131550000000  0.4328550000000 1.0
C      1  0.4613650000000  0.5073120000000  0.5559530000000 1.0
C      1  0.5073120000000  0.5559530000000  0.4613650000000 1.0
C      1  0.5559530000000  0.4613650000000  0.5073120000000 1.0
C      1  0.5386350000000  0.4926880000000  0.5559530000000 1.0
C      1  0.4613650000000  0.4926880000000  0.4440470000000 1.0
C      1  0.5386350000000  0.5073120000000  0.4440470000000 1.0
C      1  0.4926880000000  0.4440470000000  0.4613650000000 1.0
C      1  0.5073120000000  0.4440470000000  0.5386350000000 1.0
C      1  0.4926880000000  0.5559530000000  0.5386350000000 1.0
C      1  0.4440470000000  0.5386350000000  0.5073120000000 1.0
C      1  0.5559530000000  0.5386350000000  0.4926880000000 1.0
C      1  0.4440470000000  0.4613650000000  0.4926880000000 1.0
C      1  0.4613650000000  0.5073120000000  0.4440470000000 1.0
C      1  0.5073120000000  0.5559530000000  0.5386350000000 1.0
C      1  0.5559530000000  0.4613650000000  0.4926880000000 1.0
C      1  0.5386350000000  0.4926880000000  0.4440470000000 1.0
C      1  0.4613650000000  0.4926880000000  0.5559530000000 1.0
C      1  0.5386350000000  0.5073120000000  0.5559530000000 1.0
C      1  0.4926880000000  0.4440470000000  0.5386350000000 1.0
C      1  0.5073120000000  0.4440470000000  0.4613650000000 1.0
C      1  0.4926880000000  0.5559530000000  0.4613650000000 1.0
C      1  0.4440470000000  0.5386350000000  0.4926880000000 1.0
C      1  0.5559530000000  0.5386350000000  0.5073120000000 1.0
C      1  0.4440470000000  0.4613650000000  0.5073120000000 1.0
C      1  0.5237270000000  0.5000000000000  0.5773590000000 1.0
C      1  0.5000000000000  0.5773590000000  0.5237270000000 1.0
C      1  0.5773590000000  0.5237270000000  0.5000000000000 1.0
C      1  0.4762730000000  0.5000000000000  0.5773590000000 1.0
C      1  0.5237270000000  0.5000000000000  0.4226410000000 1.0
C      1  0.4762730000000  0.5000000000000  0.4226410000000 1.0
C      1  0.5000000000000  0.4226410000000  0.5237270000000 1.0
C      1  0.5000000000000  0.4226410000000  0.4762730000000 1.0
C      1  0.5000000000000  0.5773590000000  0.4762730000000 1.0
C      1  0.4226410000000  0.4762730000000  0.5000000000000 1.0
C      1  0.5773590000000  0.4762730000000  0.5000000000000 1.0
C      1  0.4226410000000  0.5237270000000  0.5000000000000 1.0
END
