TITL C-1887025-1554-40 1.74131029355437e-07 1000000 -3257.91265595665 0 0 460 (Cs) n - 1
REM
REM in /nfs/bkarasulu/CARBON/AIRSS/Generating-Clusters/GAP-ML-2020/Higher-Symm/Selected-Sizes/TryA-Only_Ih-Symm/Larger-Clusters
REM
REM
REM
REM
REM
REM ./C.cell (2cf5181f0f1d4d5b12b972d32ad12063)
REM
REM compiler GCC version 9.2.1 20190827 (Red Hat 9.2.1-1)
REM options -cpp -mtune=generic -march=x86-64 -g -O0 -fpre-include=/usr/include/finclude/math-vector-fortran.h
REM seed -1548343662 -679100722 581963742 1325740937 1289195724 2074491939 -1526010352 309534867 1451120325 -2123068641 -1361180542 600038404 -2065692586 -1186560290 -375765267 1475746611 -1678821619 -1519642206 -2111623035 -153009565 -1452471803 1126329081 -41293417 119542770 -1582435467 -1210042623 -1145032639 1956331390 531412676 1914826001 1110714967 1403061720 -719861362
REM
CELL 1.54180  100.00000  100.00000  100.00000   90.00000   90.00000   90.00000
LATT -1
SFAC C  
C      1  0.4970410000000  0.4598690000000  0.4227100000000 1.0
C      1  0.4594770000000  0.4291060000000  0.4998720000000 1.0
C      1  0.4258830000000  0.4995970000000  0.4606790000000 1.0
C      1  0.5008750000000  0.4605100000000  0.5745390000000 1.0
C      1  0.5012590000000  0.5388300000000  0.4252850000000 1.0
C      1  0.4991310000000  0.5391510000000  0.5746020000000 1.0
C      1  0.5393490000000  0.4255140000000  0.5000270000000 1.0
C      1  0.5396440000000  0.5743960000000  0.4992700000000 1.0
C      1  0.4606650000000  0.5734160000000  0.5000620000000 1.0
C      1  0.5741740000000  0.5003710000000  0.5394410000000 1.0
C      1  0.5744620000000  0.4996880000000  0.4603140000000 1.0
C      1  0.4261920000000  0.4984380000000  0.5389030000000 1.0
C      1  0.4228480000000  0.4598690000000  0.4969050000000 1.0
C      1  0.5000090000000  0.4291060000000  0.4593390000000 1.0
C      1  0.4608150000000  0.4995970000000  0.4257470000000 1.0
C      1  0.5746770000000  0.4605110000000  0.5007350000000 1.0
C      1  0.4254230000000  0.5388290000000  0.5011240000000 1.0
C      1  0.5747390000000  0.5391520000000  0.4989910000000 1.0
C      1  0.5001660000000  0.4255140000000  0.5392100000000 1.0
C      1  0.4994080000000  0.5743950000000  0.5395070000000 1.0
C      1  0.5001980000000  0.5734170000000  0.4605280000000 1.0
C      1  0.5395810000000  0.5003710000000  0.5740350000000 1.0
C      1  0.4604540000000  0.4996870000000  0.5743260000000 1.0
C      1  0.5390390000000  0.4984390000000  0.4260530000000 1.0
C      1  0.4337600000000  0.5176190000000  0.5295270000000 1.0
C      1  0.5194940000000  0.5284170000000  0.4336730000000 1.0
C      1  0.5291860000000  0.4335320000000  0.5186070000000 1.0
C      1  0.5665830000000  0.5183520000000  0.4702350000000 1.0
C      1  0.5665670000000  0.4813700000000  0.5296310000000 1.0
C      1  0.4345830000000  0.4813300000000  0.4703310000000 1.0
C      1  0.4808000000000  0.5288190000000  0.5664960000000 1.0
C      1  0.4808110000000  0.4706420000000  0.4342310000000 1.0
C      1  0.5192950000000  0.4708640000000  0.5664400000000 1.0
C      1  0.4705990000000  0.4351650000000  0.4811500000000 1.0
C      1  0.4706520000000  0.5657880000000  0.5188920000000 1.0
C      1  0.5293750000000  0.5659820000000  0.4810400000000 1.0
C      1  0.5296630000000  0.5176200000000  0.4336220000000 1.0
C      1  0.4338110000000  0.5284160000000  0.5193590000000 1.0
C      1  0.5187460000000  0.4335320000000  0.5290470000000 1.0
C      1  0.4703740000000  0.5183510000000  0.5664460000000 1.0
C      1  0.5297710000000  0.4813700000000  0.5664290000000 1.0
C      1  0.4704660000000  0.4813300000000  0.4344470000000 1.0
C      1  0.5666320000000  0.5288200000000  0.4806600000000 1.0
C      1  0.4343690000000  0.4706420000000  0.4806750000000 1.0
C      1  0.5665780000000  0.4708640000000  0.5191550000000 1.0
C      1  0.4812870000000  0.4351650000000  0.4704620000000 1.0
C      1  0.5190290000000  0.5657880000000  0.4705140000000 1.0
C      1  0.4811780000000  0.5659810000000  0.5292390000000 1.0
C      1  0.5132090000000  0.5231390000000  0.5816660000000 1.0
C      1  0.5235460000000  0.5810690000000  0.5136470000000 1.0
C      1  0.5813680000000  0.5137910000000  0.5230760000000 1.0
C      1  0.4873370000000  0.5224310000000  0.4183110000000 1.0
C      1  0.4868670000000  0.4766530000000  0.5815230000000 1.0
C      1  0.5122180000000  0.4759400000000  0.4172300000000 1.0
C      1  0.4768960000000  0.5803250000000  0.4864240000000 1.0
C      1  0.4757160000000  0.4203570000000  0.5134160000000 1.0
C      1  0.5229830000000  0.4194530000000  0.4856180000000 1.0
C      1  0.4180810000000  0.5126900000000  0.4774520000000 1.0
C      1  0.4187820000000  0.4849690000000  0.5227090000000 1.0
C      1  0.5816800000000  0.4861890000000  0.4768650000000 1.0
C      1  0.5818030000000  0.5231390000000  0.5130690000000 1.0
C      1  0.5137840000000  0.5810690000000  0.5234090000000 1.0
C      1  0.5232160000000  0.5137900000000  0.5812300000000 1.0
C      1  0.4184480000000  0.5224300000000  0.4872020000000 1.0
C      1  0.5816610000000  0.4766530000000  0.4867270000000 1.0
C      1  0.4173680000000  0.4759400000000  0.5120830000000 1.0
C      1  0.4865600000000  0.5803250000000  0.4767590000000 1.0
C      1  0.5135530000000  0.4203580000000  0.4755780000000 1.0
C      1  0.4857570000000  0.4194520000000  0.5228450000000 1.0
C      1  0.4775870000000  0.5126900000000  0.4179450000000 1.0
C      1  0.5228440000000  0.4849700000000  0.4186430000000 1.0
C      1  0.4770050000000  0.4861880000000  0.5815430000000 1.0
C      1  0.4843420000000  0.5056160000000  0.4739750000000 1.0
C      1  0.5057680000000  0.4747270000000  0.4843810000000 1.0
C      1  0.4742000000000  0.4845440000000  0.5054710000000 1.0
C      1  0.5160270000000  0.5053610000000  0.5260660000000 1.0
C      1  0.5160250000000  0.4944520000000  0.4741190000000 1.0
C      1  0.4843660000000  0.4943630000000  0.5260830000000 1.0
C      1  0.4947300000000  0.4743990000000  0.5158140000000 1.0
C      1  0.4948850000000  0.5255440000000  0.4845090000000 1.0
C      1  0.5059670000000  0.5256870000000  0.5160480000000 1.0
C      1  0.5262570000000  0.4843180000000  0.4945530000000 1.0
C      1  0.5263310000000  0.5155120000000  0.5056620000000 1.0
C      1  0.4741720000000  0.5156220000000  0.4945760000000 1.0
C      1  0.4741120000000  0.5056160000000  0.4842050000000 1.0
C      1  0.4845190000000  0.4747260000000  0.5056310000000 1.0
C      1  0.5056080000000  0.4845440000000  0.4740620000000 1.0
C      1  0.5262040000000  0.5053620000000  0.5158880000000 1.0
C      1  0.4742570000000  0.4944520000000  0.5158880000000 1.0
C      1  0.5262210000000  0.4943640000000  0.4842280000000 1.0
C      1  0.5159520000000  0.4743990000000  0.4945910000000 1.0
C      1  0.4846470000000  0.5255430000000  0.4947480000000 1.0
C      1  0.5161860000000  0.5256870000000  0.5058290000000 1.0
C      1  0.4946920000000  0.4843180000000  0.5261190000000 1.0
C      1  0.5058000000000  0.5155120000000  0.5261930000000 1.0
C      1  0.4947120000000  0.5156220000000  0.4740340000000 1.0
C      1  0.4463760000000  0.5091670000000  0.5315230000000 1.0
C      1  0.5107680000000  0.5309220000000  0.4460860000000 1.0
C      1  0.5314270000000  0.4462240000000  0.5101410000000 1.0
C      1  0.5540220000000  0.5096920000000  0.4683260000000 1.0
C      1  0.5539730000000  0.4900250000000  0.5315240000000 1.0
C      1  0.4465630000000  0.4903310000000  0.4682550000000 1.0
C      1  0.4894760000000  0.5310240000000  0.5540050000000 1.0
C      1  0.4898440000000  0.4672310000000  0.4461350000000 1.0
C      1  0.5105950000000  0.4686480000000  0.5539450000000 1.0
C      1  0.4690980000000  0.4479560000000  0.4897250000000 1.0
C      1  0.4688730000000  0.5531820000000  0.5102920000000 1.0
C      1  0.5316000000000  0.5535160000000  0.4898460000000 1.0
C      1  0.5316590000000  0.5091680000000  0.4462370000000 1.0
C      1  0.4462240000000  0.5309210000000  0.5106320000000 1.0
C      1  0.5102800000000  0.4462240000000  0.5312880000000 1.0
C      1  0.4684650000000  0.5096910000000  0.5538850000000 1.0
C      1  0.5316640000000  0.4900250000000  0.5538340000000 1.0
C      1  0.4683910000000  0.4903310000000  0.4464260000000 1.0
C      1  0.5541420000000  0.5310250000000  0.4893370000000 1.0
C      1  0.4462730000000  0.4672300000000  0.4897070000000 1.0
C      1  0.5540840000000  0.4686480000000  0.5104550000000 1.0
C      1  0.4898620000000  0.4479560000000  0.4689600000000 1.0
C      1  0.5104290000000  0.5531830000000  0.4687360000000 1.0
C      1  0.4899840000000  0.5535150000000  0.5314630000000 1.0
C      1  0.4563180000000  0.5031090000000  0.5610380000000 1.0
C      1  0.5039950000000  0.5602490000000  0.4566220000000 1.0
C      1  0.5614850000000  0.4563440000000  0.5043010000000 1.0
C      1  0.5434590000000  0.5022430000000  0.4390060000000 1.0
C      1  0.5437070000000  0.4967390000000  0.5608970000000 1.0
C      1  0.4563960000000  0.4970360000000  0.4391750000000 1.0
C      1  0.4957800000000  0.5611720000000  0.5437980000000 1.0
C      1  0.4966060000000  0.4428980000000  0.4566000000000 1.0
C      1  0.5041140000000  0.4385790000000  0.5435770000000 1.0
C      1  0.4359740000000  0.4545590000000  0.4958040000000 1.0
C      1  0.4385840000000  0.5432770000000  0.5046740000000 1.0
C      1  0.5614860000000  0.5432310000000  0.4954700000000 1.0
C      1  0.5611750000000  0.5031100000000  0.4561790000000 1.0
C      1  0.4567590000000  0.5602490000000  0.5038590000000 1.0
C      1  0.5044410000000  0.4563430000000  0.5613470000000 1.0
C      1  0.4391450000000  0.5022420000000  0.5433230000000 1.0
C      1  0.5610360000000  0.4967390000000  0.5435680000000 1.0
C      1  0.4393110000000  0.4970360000000  0.4562600000000 1.0
C      1  0.5439350000000  0.5611730000000  0.4956420000000 1.0
C      1  0.4567380000000  0.4428980000000  0.4964690000000 1.0
C      1  0.5437150000000  0.4385790000000  0.5039750000000 1.0
C      1  0.4959410000000  0.4545590000000  0.4358360000000 1.0
C      1  0.5048090000000  0.5432780000000  0.4384460000000 1.0
C      1  0.4956090000000  0.5432300000000  0.5613490000000 1.0
C      1  0.4498480000000  0.4751790000000  0.5143600000000 1.0
C      1  0.4756770000000  0.5151260000000  0.4463130000000 1.0
C      1  0.5154440000000  0.4484710000000  0.4751740000000 1.0
C      1  0.5533270000000  0.4750270000000  0.4853240000000 1.0
C      1  0.5533430000000  0.5247840000000  0.5145200000000 1.0
C      1  0.4466910000000  0.5245850000000  0.4855530000000 1.0
C      1  0.5245450000000  0.5151950000000  0.5529990000000 1.0
C      1  0.5248700000000  0.4837470000000  0.4479150000000 1.0
C      1  0.4756080000000  0.4846830000000  0.5532040000000 1.0
C      1  0.4852490000000  0.4476540000000  0.5249280000000 1.0
C      1  0.4853350000000  0.5522300000000  0.4754480000000 1.0
C      1  0.5157490000000  0.5530210000000  0.5254480000000 1.0
C      1  0.5144960000000  0.4751790000000  0.4497090000000 1.0
C      1  0.4464500000000  0.5151260000000  0.4755410000000 1.0
C      1  0.4753130000000  0.4484700000000  0.5153060000000 1.0
C      1  0.4854630000000  0.4750260000000  0.5531890000000 1.0
C      1  0.5146590000000  0.5247830000000  0.5532050000000 1.0
C      1  0.4856880000000  0.5245850000000  0.4465540000000 1.0
C      1  0.5531370000000  0.5151950000000  0.5244060000000 1.0
C      1  0.4480530000000  0.4837470000000  0.5247340000000 1.0
C      1  0.5533410000000  0.4846840000000  0.4754690000000 1.0
C      1  0.5250660000000  0.4476540000000  0.4851100000000 1.0
C      1  0.4755850000000  0.5522300000000  0.4851980000000 1.0
C      1  0.5255860000000  0.5530210000000  0.5156110000000 1.0
C      1  0.4384990000000  0.5194360000000  0.4625450000000 1.0
C      1  0.5181330000000  0.4529140000000  0.4285610000000 1.0
C      1  0.4615900000000  0.4425680000000  0.5194260000000 1.0
C      1  0.5593290000000  0.5195730000000  0.5376980000000 1.0
C      1  0.5602090000000  0.4804840000000  0.4623140000000 1.0
C      1  0.4409760000000  0.4792430000000  0.5380860000000 1.0
C      1  0.4816310000000  0.4617080000000  0.5600160000000 1.0
C      1  0.4821990000000  0.5379470000000  0.4398020000000 1.0
C      1  0.5184780000000  0.5378800000000  0.5603210000000 1.0
C      1  0.5383210000000  0.4405390000000  0.4813370000000 1.0
C      1  0.5393180000000  0.5603060000000  0.5185410000000 1.0
C      1  0.4622040000000  0.5584850000000  0.4809500000000 1.0
C      1  0.4626810000000  0.5194360000000  0.4383630000000 1.0
C      1  0.4286990000000  0.4529130000000  0.5179980000000 1.0
C      1  0.5195630000000  0.4425680000000  0.4614520000000 1.0
C      1  0.5378370000000  0.5195730000000  0.5591910000000 1.0
C      1  0.4624530000000  0.4804830000000  0.5600720000000 1.0
C      1  0.5382220000000  0.4792440000000  0.4408380000000 1.0
C      1  0.5601540000000  0.4617090000000  0.4814920000000 1.0
C      1  0.4399390000000  0.5379460000000  0.4820640000000 1.0
C      1  0.5604590000000  0.5378810000000  0.5183390000000 1.0
C      1  0.4814760000000  0.4405380000000  0.5381830000000 1.0
C      1  0.5186790000000  0.5603060000000  0.5391800000000 1.0
C      1  0.4810860000000  0.5584850000000  0.4620680000000 1.0
C      1  0.4581600000000  0.4465370000000  0.5337240000000 1.0
C      1  0.4420520000000  0.5337640000000  0.4585090000000 1.0
C      1  0.5302490000000  0.4528290000000  0.4341700000000 1.0
C      1  0.5431050000000  0.4471640000000  0.4684730000000 1.0
C      1  0.5473340000000  0.5555740000000  0.5311980000000 1.0
C      1  0.4575990000000  0.5515400000000  0.4678070000000 1.0
C      1  0.5524040000000  0.5329210000000  0.5417240000000 1.0
C      1  0.5535740000000  0.4672460000000  0.4582510000000 1.0
C      1  0.4476520000000  0.4664900000000  0.5441170000000 1.0
C      1  0.4685800000000  0.4573300000000  0.5533260000000 1.0
C      1  0.4689420000000  0.5425780000000  0.4459030000000 1.0
C      1  0.5315700000000  0.5428200000000  0.5540780000000 1.0
C      1  0.5338600000000  0.4465370000000  0.4580210000000 1.0
C      1  0.4586450000000  0.5337640000000  0.4419160000000 1.0
C      1  0.4343090000000  0.4528280000000  0.5301130000000 1.0
C      1  0.4686130000000  0.4471640000000  0.5429680000000 1.0
C      1  0.5313360000000  0.5555740000000  0.5471960000000 1.0
C      1  0.4679430000000  0.5515400000000  0.4574630000000 1.0
C      1  0.5418630000000  0.5329210000000  0.5522660000000 1.0
C      1  0.4583910000000  0.4672450000000  0.5534370000000 1.0
C      1  0.5442530000000  0.4664910000000  0.4475130000000 1.0
C      1  0.5534630000000  0.4573310000000  0.4684410000000 1.0
C      1  0.4460400000000  0.5425780000000  0.4688070000000 1.0
C      1  0.5542160000000  0.5428200000000  0.5314320000000 1.0
C      1  0.4703320000000  0.5663810000000  0.5398800000000 1.0
C      1  0.5673830000000  0.5393770000000  0.4698210000000 1.0
C      1  0.5402890000000  0.4705720000000  0.5671440000000 1.0
C      1  0.5298150000000  0.5661670000000  0.4599160000000 1.0
C      1  0.5295820000000  0.4330120000000  0.5396790000000 1.0
C      1  0.4704200000000  0.4346680000000  0.4601070000000 1.0
C      1  0.4330740000000  0.5387320000000  0.5303010000000 1.0
C      1  0.4326550000000  0.4604210000000  0.4695440000000 1.0
C      1  0.5671020000000  0.4602880000000  0.5299600000000 1.0
C      1  0.4596960000000  0.4708550000000  0.4327370000000 1.0
C      1  0.4598020000000  0.5290690000000  0.5673790000000 1.0
C      1  0.5404450000000  0.5282840000000  0.4327560000000 1.0
C      1  0.5400160000000  0.5663820000000  0.4701940000000 1.0
C      1  0.4699600000000  0.5393760000000  0.5672460000000 1.0
C      1  0.5672830000000  0.4705720000000  0.5401490000000 1.0
C      1  0.4600540000000  0.5661660000000  0.5296790000000 1.0
C      1  0.5398180000000  0.4330120000000  0.5294420000000 1.0
C      1  0.4602440000000  0.4346680000000  0.4702830000000 1.0
C      1  0.5304360000000  0.5387320000000  0.4329360000000 1.0
C      1  0.4696800000000  0.4604210000000  0.4325180000000 1.0
C      1  0.5301000000000  0.4602880000000  0.5669640000000 1.0
C      1  0.4328730000000  0.4708550000000  0.4595600000000 1.0
C      1  0.5675160000000  0.5290700000000  0.4596630000000 1.0
C      1  0.4328940000000  0.5282830000000  0.5403090000000 1.0
C      1  0.5093030000000  0.4470460000000  0.4519410000000 1.0
C      1  0.4386380000000  0.4487070000000  0.5082160000000 1.0
C      1  0.4525470000000  0.5100710000000  0.4430710000000 1.0
C      1  0.4917670000000  0.4430820000000  0.5477670000000 1.0
C      1  0.4915070000000  0.5559080000000  0.4526400000000 1.0
C      1  0.5080940000000  0.5568120000000  0.5481840000000 1.0
C      1  0.5572280000000  0.4522300000000  0.4917730000000 1.0
C      1  0.5573360000000  0.5473760000000  0.5079620000000 1.0
C      1  0.4428530000000  0.5474650000000  0.4921770000000 1.0
C      1  0.5474010000000  0.5094180000000  0.5564950000000 1.0
C      1  0.5474400000000  0.4898490000000  0.4436190000000 1.0
C      1  0.4527110000000  0.4903810000000  0.5567660000000 1.0
C      1  0.4520800000000  0.4470460000000  0.5091660000000 1.0
C      1  0.5083530000000  0.4487080000000  0.4385000000000 1.0
C      1  0.4432070000000  0.5100700000000  0.4524110000000 1.0
C      1  0.5479050000000  0.4430830000000  0.4916270000000 1.0
C      1  0.4527770000000  0.5559070000000  0.4913710000000 1.0
C      1  0.5483220000000  0.5568130000000  0.5079560000000 1.0
C      1  0.4919130000000  0.4522300000000  0.5570900000000 1.0
C      1  0.5081010000000  0.5473760000000  0.5571980000000 1.0
C      1  0.4923130000000  0.5474660000000  0.4427160000000 1.0
C      1  0.5566340000000  0.5094190000000  0.5472620000000 1.0
C      1  0.4437580000000  0.4898480000000  0.5473030000000 1.0
C      1  0.5569030000000  0.4903820000000  0.4525720000000 1.0
C      1  0.4641400000000  0.4859780000000  0.5750430000000 1.0
C      1  0.4864080000000  0.5738650000000  0.4639550000000 1.0
C      1  0.5752380000000  0.4637880000000  0.4869070000000 1.0
C      1  0.5357090000000  0.4846500000000  0.4253550000000 1.0
C      1  0.5359680000000  0.5141190000000  0.5745580000000 1.0
C      1  0.4645870000000  0.5130840000000  0.4242000000000 1.0
C      1  0.5133490000000  0.5750950000000  0.5365810000000 1.0
C      1  0.5136550000000  0.4276350000000  0.4629010000000 1.0
C      1  0.4863080000000  0.4254830000000  0.5358960000000 1.0
C      1  0.4195730000000  0.4617050000000  0.5106630000000 1.0
C      1  0.4248760000000  0.5354460000000  0.4872960000000 1.0
C      1  0.5754640000000  0.5359840000000  0.5128100000000 1.0
C      1  0.5751800000000  0.4859790000000  0.4640000000000 1.0
C      1  0.4640920000000  0.5738640000000  0.4862720000000 1.0
C      1  0.4870470000000  0.4637880000000  0.5751000000000 1.0
C      1  0.4254940000000  0.4846490000000  0.5355740000000 1.0
C      1  0.5746960000000  0.5141200000000  0.5358280000000 1.0
C      1  0.4243370000000  0.5130840000000  0.4644520000000 1.0
C      1  0.5367180000000  0.5750950000000  0.5132110000000 1.0
C      1  0.4630400000000  0.4276340000000  0.5135180000000 1.0
C      1  0.5360330000000  0.4254840000000  0.4861690000000 1.0
C      1  0.5107990000000  0.4617060000000  0.4194350000000 1.0
C      1  0.4874310000000  0.5354460000000  0.4247390000000 1.0
C      1  0.5129500000000  0.5359830000000  0.5753270000000 1.0
C      1  0.5779740000000  0.5178670000000  0.4999080000000 1.0
C      1  0.5184170000000  0.5004070000000  0.5775850000000 1.0
C      1  0.5005700000000  0.5771370000000  0.5182290000000 1.0
C      1  0.4224910000000  0.5173610000000  0.5003190000000 1.0
C      1  0.4224820000000  0.4814220000000  0.4995280000000 1.0
C      1  0.5778710000000  0.4818300000000  0.4999370000000 1.0
C      1  0.4822900000000  0.4995200000000  0.4222850000000 1.0
C      1  0.4818320000000  0.4994850000000  0.5777310000000 1.0
C      1  0.5181950000000  0.4983940000000  0.4225430000000 1.0
C      1  0.4999150000000  0.5768610000000  0.4818410000000 1.0
C      1  0.4991740000000  0.4228420000000  0.5178390000000 1.0
C      1  0.5003620000000  0.4237270000000  0.4807630000000 1.0
C      1  0.5000480000000  0.5178660000000  0.5778370000000 1.0
C      1  0.5777230000000  0.5004080000000  0.5182770000000 1.0
C      1  0.5183660000000  0.5771380000000  0.5004320000000 1.0
C      1  0.5004540000000  0.5173610000000  0.4223530000000 1.0
C      1  0.4996630000000  0.4814220000000  0.4223440000000 1.0
C      1  0.5000770000000  0.4818290000000  0.5777330000000 1.0
C      1  0.4224220000000  0.4995190000000  0.4821550000000 1.0
C      1  0.5778680000000  0.4994860000000  0.4816920000000 1.0
C      1  0.4226810000000  0.4983930000000  0.5180600000000 1.0
C      1  0.4819780000000  0.5768610000000  0.4997790000000 1.0
C      1  0.5179770000000  0.4228420000000  0.4990350000000 1.0
C      1  0.4809010000000  0.4237260000000  0.5002240000000 1.0
C      1  0.4387730000000  0.4485020000000  0.4692570000000 1.0
C      1  0.4476270000000  0.4707750000000  0.4386270000000 1.0
C      1  0.4702230000000  0.4398910000000  0.4476960000000 1.0
C      1  0.5605070000000  0.4484680000000  0.5301020000000 1.0
C      1  0.5608520000000  0.5511970000000  0.4695700000000 1.0
C      1  0.4394940000000  0.5506310000000  0.5305490000000 1.0
C      1  0.5523000000000  0.4705070000000  0.5610230000000 1.0
C      1  0.5524550000000  0.5283410000000  0.4388780000000 1.0
C      1  0.4478350000000  0.5290570000000  0.5612040000000 1.0
C      1  0.5298030000000  0.4395950000000  0.5515250000000 1.0
C      1  0.5299740000000  0.5596010000000  0.4480740000000 1.0
C      1  0.4701570000000  0.5600240000000  0.5518250000000 1.0
C      1  0.4693930000000  0.4485020000000  0.4386360000000 1.0
C      1  0.4387630000000  0.4707750000000  0.4474910000000 1.0
C      1  0.4478330000000  0.4398910000000  0.4700860000000 1.0
C      1  0.5302410000000  0.4484680000000  0.5603680000000 1.0
C      1  0.4697090000000  0.5511960000000  0.5607160000000 1.0
C      1  0.5306840000000  0.5506320000000  0.4393560000000 1.0
C      1  0.5611630000000  0.4705070000000  0.5521610000000 1.0
C      1  0.4390170000000  0.5283400000000  0.5523200000000 1.0
C      1  0.5613400000000  0.5290580000000  0.4476960000000 1.0
C      1  0.5516640000000  0.4395950000000  0.5296630000000 1.0
C      1  0.4482120000000  0.5596000000000  0.5298380000000 1.0
C      1  0.5519610000000  0.5600250000000  0.4700180000000 1.0
C      1  0.5398570000000  0.4712510000000  0.5171090000000 1.0
C      1  0.4713040000000  0.5164710000000  0.5397100000000 1.0
C      1  0.5172560000000  0.5390780000000  0.4713700000000 1.0
C      1  0.4607790000000  0.4719500000000  0.4827910000000 1.0
C      1  0.4605260000000  0.5282370000000  0.5171100000000 1.0
C      1  0.5399290000000  0.5284940000000  0.4827760000000 1.0
C      1  0.5289370000000  0.5162230000000  0.4603540000000 1.0
C      1  0.5289340000000  0.4832030000000  0.5396670000000 1.0
C      1  0.4714200000000  0.4838580000000  0.4605380000000 1.0
C      1  0.4831070000000  0.5393020000000  0.5289730000000 1.0
C      1  0.4832120000000  0.4617100000000  0.4717660000000 1.0
C      1  0.5172870000000  0.4603880000000  0.5288840000000 1.0
C      1  0.5172480000000  0.4712500000000  0.5397180000000 1.0
C      1  0.5398470000000  0.5164710000000  0.4711650000000 1.0
C      1  0.4715070000000  0.5390780000000  0.5171190000000 1.0
C      1  0.4829270000000  0.4719510000000  0.4606420000000 1.0
C      1  0.5172460000000  0.5282380000000  0.4603880000000 1.0
C      1  0.4829140000000  0.5284930000000  0.5397920000000 1.0
C      1  0.4604920000000  0.5162230000000  0.5288010000000 1.0
C      1  0.5398060000000  0.4832030000000  0.5287950000000 1.0
C      1  0.4606750000000  0.4838580000000  0.4712840000000 1.0
C      1  0.5291100000000  0.5393020000000  0.4829690000000 1.0
C      1  0.4719030000000  0.4617100000000  0.4830750000000 1.0
C      1  0.5290230000000  0.4603890000000  0.5171480000000 1.0
C      1  0.5109870000000  0.4991120000000  0.4361040000000 1.0
C      1  0.5000940000000  0.4363210000000  0.5105460000000 1.0
C      1  0.4360910000000  0.5099690000000  0.5006110000000 1.0
C      1  0.4893420000000  0.4999680000000  0.5642070000000 1.0
C      1  0.4896480000000  0.4992690000000  0.4360310000000 1.0
C      1  0.5108620000000  0.4998020000000  0.5641520000000 1.0
C      1  0.4998480000000  0.4368010000000  0.4891120000000 1.0
C      1  0.5002750000000  0.5635470000000  0.5109910000000 1.0
C      1  0.5005460000000  0.5634690000000  0.4895160000000 1.0
C      1  0.5643740000000  0.5105510000000  0.4996940000000 1.0
C      1  0.5643390000000  0.4892030000000  0.5002510000000 1.0
C      1  0.4361260000000  0.4883430000000  0.4998300000000 1.0
C      1  0.4362420000000  0.4991120000000  0.5108510000000 1.0
C      1  0.5106840000000  0.4363210000000  0.4999560000000 1.0
C      1  0.5007460000000  0.5099700000000  0.4359540000000 1.0
C      1  0.5643450000000  0.4999690000000  0.4892030000000 1.0
C      1  0.4361680000000  0.4992680000000  0.4895120000000 1.0
C      1  0.5642900000000  0.4998020000000  0.5107230000000 1.0
C      1  0.4892500000000  0.4368010000000  0.4997100000000 1.0
C      1  0.5111280000000  0.5635470000000  0.5001370000000 1.0
C      1  0.4896530000000  0.5634690000000  0.5004090000000 1.0
C      1  0.4998340000000  0.5105500000000  0.5642370000000 1.0
C      1  0.5003910000000  0.4892030000000  0.5642010000000 1.0
C      1  0.4999660000000  0.4883430000000  0.4359890000000 1.0
C      1  0.5050930000000  0.5370430000000  0.4846380000000 1.0
C      1  0.5377990000000  0.4843090000000  0.5047130000000 1.0
C      1  0.4844230000000  0.5044430000000  0.5376670000000 1.0
C      1  0.4958980000000  0.5372180000000  0.5159520000000 1.0
C      1  0.4956720000000  0.4634280000000  0.4846440000000 1.0
C      1  0.5048020000000  0.4627770000000  0.5156050000000 1.0
C      1  0.4625690000000  0.4843850000000  0.4950410000000 1.0
C      1  0.4625820000000  0.5154310000000  0.5048180000000 1.0
C      1  0.5378250000000  0.5153500000000  0.4953720000000 1.0
C      1  0.5160520000000  0.5043390000000  0.4624820000000 1.0
C      1  0.5159260000000  0.4952540000000  0.5376310000000 1.0
C      1  0.4844680000000  0.4955620000000  0.4623340000000 1.0
C      1  0.4847750000000  0.5370430000000  0.5049560000000 1.0
C      1  0.5048520000000  0.4843090000000  0.5376610000000 1.0
C      1  0.5378040000000  0.5044430000000  0.4842840000000 1.0
C      1  0.5160900000000  0.5372180000000  0.4957600000000 1.0
C      1  0.4847820000000  0.4634280000000  0.4955350000000 1.0
C      1  0.5157440000000  0.4627770000000  0.5046640000000 1.0
C      1  0.4951780000000  0.4843850000000  0.4624310000000 1.0
C      1  0.5049550000000  0.5154320000000  0.4624440000000 1.0
C      1  0.4955110000000  0.5153490000000  0.5376870000000 1.0
C      1  0.4626200000000  0.5043390000000  0.5159160000000 1.0
C      1  0.5377690000000  0.4952540000000  0.5157880000000 1.0
C      1  0.4624710000000  0.4955620000000  0.4843310000000 1.0
C      1  0.4485000000000  0.4784990000000  0.5005350000000 1.0
C      1  0.4798980000000  0.5009060000000  0.4479970000000 1.0
C      1  0.5011700000000  0.4494190000000  0.4799220000000 1.0
C      1  0.5520740000000  0.4795990000000  0.4994440000000 1.0
C      1  0.5521160000000  0.5201520000000  0.5004490000000 1.0
C      1  0.4481660000000  0.5198940000000  0.4996300000000 1.0
C      1  0.5203860000000  0.5008490000000  0.5518880000000 1.0
C      1  0.5205570000000  0.4983320000000  0.4484150000000 1.0
C      1  0.4797970000000  0.4989320000000  0.5519740000000 1.0
C      1  0.4994130000000  0.4485270000000  0.5203360000000 1.0
C      1  0.4996160000000  0.5512380000000  0.4799060000000 1.0
C      1  0.5013350000000  0.5514630000000  0.5207850000000 1.0
C      1  0.5006710000000  0.4784990000000  0.4483620000000 1.0
C      1  0.4481340000000  0.5009050000000  0.4797620000000 1.0
C      1  0.4800600000000  0.4494180000000  0.5010320000000 1.0
C      1  0.4995830000000  0.4795980000000  0.5519360000000 1.0
C      1  0.5005880000000  0.5201520000000  0.5519790000000 1.0
C      1  0.4997660000000  0.5198940000000  0.4480280000000 1.0
C      1  0.5520270000000  0.5008490000000  0.5202470000000 1.0
C      1  0.4485530000000  0.4983310000000  0.5204200000000 1.0
C      1  0.5521110000000  0.4989320000000  0.4796580000000 1.0
C      1  0.5204740000000  0.4485270000000  0.4992750000000 1.0
C      1  0.4800430000000  0.5512380000000  0.4994800000000 1.0
C      1  0.5209220000000  0.5514640000000  0.5011970000000 1.0
C      1  0.4708230000000  0.5083330000000  0.5772890000000 1.0
C      1  0.5088290000000  0.5765770000000  0.4708940000000 1.0
C      1  0.5774940000000  0.4711130000000  0.5091380000000 1.0
C      1  0.5290170000000  0.5073480000000  0.4228910000000 1.0
C      1  0.5293950000000  0.4915730000000  0.5771800000000 1.0
C      1  0.4711400000000  0.4908210000000  0.4231290000000 1.0
C      1  0.4911420000000  0.5769800000000  0.5287600000000 1.0
C      1  0.4916550000000  0.4248930000000  0.4696710000000 1.0
C      1  0.5084570000000  0.4227690000000  0.5285190000000 1.0
C      1  0.4225700000000  0.4715140000000  0.4894690000000 1.0
C      1  0.4228430000000  0.5281500000000  0.5094620000000 1.0
C      1  0.5775870000000  0.5285100000000  0.4906260000000 1.0
C      1  0.5774260000000  0.5083340000000  0.4706830000000 1.0
C      1  0.4710310000000  0.5765760000000  0.5086930000000 1.0
C      1  0.5092790000000  0.4711130000000  0.5773560000000 1.0
C      1  0.4230300000000  0.5073470000000  0.5288810000000 1.0
C      1  0.5773180000000  0.4915730000000  0.5292560000000 1.0
C      1  0.4232660000000  0.4908210000000  0.4710050000000 1.0
C      1  0.5288970000000  0.5769800000000  0.4910040000000 1.0
C      1  0.4698090000000  0.4248930000000  0.4915180000000 1.0
C      1  0.5286580000000  0.4227690000000  0.5083180000000 1.0
C      1  0.4896040000000  0.4715150000000  0.4224320000000 1.0
C      1  0.5095970000000  0.5281500000000  0.4227050000000 1.0
C      1  0.4907660000000  0.5285090000000  0.5774500000000 1.0
C      1  0.5368290000000  0.4542020000000  0.4459820000000 1.0
C      1  0.4461210000000  0.4542010000000  0.5366920000000 1.0
C      1  0.4458850000000  0.5362180000000  0.4457500000000 1.0
C      1  0.5432490000000  0.5604870000000  0.5431110000000 1.0
END
