TITL C-1892071-372-63 2.57206294217241e-07 1000000 -3702.92396872014 0 0 520 (C1) n - 1
REM
REM in /nfs/bkarasulu/CARBON/AIRSS/Generating-Clusters/GAP-ML-2020/Higher-Symm/Selected-Sizes/TryA-Only_Ih-Symm/Larger-Clusters
REM
REM
REM
REM
REM
REM ./C.cell (2cf5181f0f1d4d5b12b972d32ad12063)
REM
REM compiler GCC version 9.2.1 20190827 (Red Hat 9.2.1-1)
REM options -cpp -mtune=generic -march=x86-64 -g -O0 -fpre-include=/usr/include/finclude/math-vector-fortran.h
REM seed -1199673717 -118150602 367160996 788597358 1791448862 -968910619 -1210546312 1879050514 -1496054532 -1041063511 -120088621 1579581119 -2125643123 389057695 727365593 283473043 1884305734 -2063156046 -319514650 1658285817 131631257 1808190194 -654815852 1808557449 -1388948214 -2036413914 507314484 453451606 -1730270489 -1656285609 871321643 -623135363 -676849957
REM
CELL 1.54180  100.00000  100.00000  100.00000   90.00000   90.00000   90.00000
LATT -1
SFAC C  
C      1  0.5551310000000  0.5053710000000  0.4763810000000 1.0
C      1  0.5065330000000  0.4753230000000  0.5536520000000 1.0
C      1  0.4760890000000  0.5545560000000  0.5066130000000 1.0
C      1  0.4447550000000  0.4942860000000  0.4760830000000 1.0
C      1  0.5543710000000  0.4932510000000  0.5246710000000 1.0
C      1  0.4459410000000  0.5070720000000  0.5247110000000 1.0
C      1  0.4941600000000  0.5232400000000  0.5551250000000 1.0
C      1  0.5066640000000  0.5244090000000  0.4459990000000 1.0
C      1  0.4933460000000  0.4754250000000  0.4458500000000 1.0
C      1  0.5235460000000  0.4444970000000  0.5060910000000 1.0
C      1  0.4752240000000  0.4471010000000  0.4928850000000 1.0
C      1  0.5244560000000  0.5527460000000  0.4931960000000 1.0
C      1  0.5058650000000  0.5544770000000  0.4769100000000 1.0
C      1  0.4756940000000  0.5066400000000  0.5535050000000 1.0
C      1  0.5544380000000  0.4753040000000  0.5067480000000 1.0
C      1  0.4939780000000  0.4451890000000  0.4767530000000 1.0
C      1  0.4937680000000  0.5539610000000  0.5242650000000 1.0
C      1  0.5062110000000  0.4457910000000  0.5242040000000 1.0
C      1  0.5234350000000  0.4938650000000  0.5554990000000 1.0
C      1  0.5241840000000  0.5061360000000  0.4457320000000 1.0
C      1  0.4758270000000  0.4936830000000  0.4455820000000 1.0
C      1  0.4449010000000  0.5240190000000  0.5059270000000 1.0
C      1  0.4459590000000  0.4752610000000  0.4927630000000 1.0
C      1  0.5540010000000  0.5243660000000  0.4931170000000 1.0
C      1  0.4831040000000  0.4361890000000  0.4735630000000 1.0
C      1  0.4341440000000  0.4721140000000  0.4826390000000 1.0
C      1  0.4725060000000  0.4833660000000  0.4340360000000 1.0
C      1  0.5166900000000  0.5635190000000  0.4737540000000 1.0
C      1  0.4845960000000  0.5665050000000  0.5263770000000 1.0
C      1  0.5149370000000  0.4329210000000  0.5260230000000 1.0
C      1  0.5656290000000  0.5277260000000  0.4828040000000 1.0
C      1  0.4337250000000  0.5275970000000  0.5167490000000 1.0
C      1  0.5662430000000  0.4724240000000  0.5168500000000 1.0
C      1  0.5274600000000  0.5164830000000  0.4341920000000 1.0
C      1  0.4751460000000  0.5143880000000  0.5665070000000 1.0
C      1  0.5267850000000  0.4840760000000  0.5673900000000 1.0
C      1  0.4336290000000  0.4835290000000  0.4723100000000 1.0
C      1  0.4734260000000  0.4363020000000  0.4835110000000 1.0
C      1  0.4829050000000  0.4720690000000  0.4343030000000 1.0
C      1  0.5661520000000  0.5162610000000  0.4725380000000 1.0
C      1  0.5662370000000  0.4832690000000  0.5276220000000 1.0
C      1  0.4341900000000  0.5171960000000  0.5279810000000 1.0
C      1  0.5262820000000  0.5635190000000  0.4837610000000 1.0
C      1  0.5272380000000  0.4327430000000  0.5160610000000 1.0
C      1  0.4726190000000  0.5665470000000  0.5163660000000 1.0
C      1  0.5170630000000  0.5277870000000  0.4344660000000 1.0
C      1  0.5141790000000  0.4744160000000  0.5667620000000 1.0
C      1  0.4845390000000  0.5266950000000  0.5668320000000 1.0
C      1  0.4352940000000  0.4766410000000  0.5439620000000 1.0
C      1  0.4767220000000  0.5444900000000  0.4356420000000 1.0
C      1  0.5461960000000  0.4354100000000  0.4748640000000 1.0
C      1  0.5649020000000  0.5237830000000  0.5439760000000 1.0
C      1  0.4349980000000  0.5240060000000  0.4556360000000 1.0
C      1  0.5648930000000  0.4758620000000  0.4557210000000 1.0
C      1  0.5232280000000  0.4553570000000  0.4355030000000 1.0
C      1  0.4740670000000  0.4535630000000  0.5640040000000 1.0
C      1  0.5249160000000  0.5463540000000  0.5643230000000 1.0
C      1  0.4537050000000  0.5642370000000  0.4751760000000 1.0
C      1  0.5461740000000  0.5641460000000  0.5249030000000 1.0
C      1  0.4534750000000  0.4358900000000  0.5247160000000 1.0
C      1  0.4739650000000  0.4357690000000  0.5462560000000 1.0
C      1  0.5439630000000  0.4758660000000  0.4353270000000 1.0
C      1  0.4348490000000  0.5442940000000  0.4762620000000 1.0
C      1  0.5257010000000  0.5643880000000  0.5462640000000 1.0
C      1  0.5247050000000  0.4352800000000  0.4541060000000 1.0
C      1  0.4751400000000  0.5644960000000  0.4543490000000 1.0
C      1  0.4559720000000  0.5239760000000  0.4352770000000 1.0
C      1  0.4532740000000  0.4752700000000  0.5639690000000 1.0
C      1  0.5461490000000  0.5251820000000  0.5645300000000 1.0
C      1  0.5650010000000  0.4555990000000  0.4763700000000 1.0
C      1  0.5643940000000  0.5443920000000  0.5231510000000 1.0
C      1  0.4353870000000  0.4557840000000  0.5230890000000 1.0
C      1  0.5497440000000  0.4996520000000  0.5109870000000 1.0
C      1  0.4998610000000  0.5099420000000  0.5495510000000 1.0
C      1  0.5104670000000  0.5478170000000  0.5002530000000 1.0
C      1  0.4502160000000  0.5000900000000  0.5106950000000 1.0
C      1  0.5502350000000  0.4993660000000  0.4899320000000 1.0
C      1  0.4494950000000  0.5001030000000  0.4895970000000 1.0
C      1  0.4999620000000  0.4891040000000  0.5483800000000 1.0
C      1  0.5000180000000  0.4892500000000  0.4502220000000 1.0
C      1  0.5000190000000  0.5105650000000  0.4502850000000 1.0
C      1  0.4893640000000  0.4518640000000  0.5001520000000 1.0
C      1  0.5103510000000  0.4503320000000  0.5002360000000 1.0
C      1  0.4894070000000  0.5491010000000  0.5004770000000 1.0
C      1  0.4999150000000  0.5484190000000  0.5108420000000 1.0
C      1  0.5102710000000  0.4995670000000  0.5496360000000 1.0
C      1  0.5497530000000  0.5102520000000  0.5002080000000 1.0
C      1  0.5000680000000  0.4514130000000  0.5107560000000 1.0
C      1  0.4999120000000  0.5486170000000  0.4900790000000 1.0
C      1  0.4998530000000  0.4509200000000  0.4899260000000 1.0
C      1  0.4893560000000  0.4996940000000  0.5482990000000 1.0
C      1  0.4894780000000  0.4999400000000  0.4502270000000 1.0
C      1  0.5105450000000  0.4998730000000  0.4503140000000 1.0
C      1  0.4502050000000  0.4893350000000  0.4999180000000 1.0
C      1  0.4495190000000  0.5104860000000  0.4999720000000 1.0
C      1  0.5499290000000  0.4889760000000  0.5004960000000 1.0
C      1  0.5791080000000  0.4907480000000  0.5275030000000 1.0
C      1  0.4922760000000  0.5285470000000  0.5795850000000 1.0
C      1  0.5195770000000  0.5781040000000  0.5038410000000 1.0
C      1  0.4212750000000  0.5098530000000  0.5279380000000 1.0
C      1  0.5793870000000  0.5094080000000  0.4719920000000 1.0
C      1  0.4204720000000  0.4905360000000  0.4719340000000 1.0
C      1  0.5020800000000  0.4791430000000  0.5757480000000 1.0
C      1  0.4900540000000  0.4719050000000  0.4213240000000 1.0
C      1  0.5099200000000  0.5279850000000  0.4214840000000 1.0
C      1  0.4800310000000  0.4217870000000  0.5034460000000 1.0
C      1  0.5284890000000  0.4200940000000  0.5076480000000 1.0
C      1  0.4711540000000  0.5792520000000  0.5080700000000 1.0
C      1  0.4942270000000  0.5776400000000  0.5228510000000 1.0
C      1  0.5280370000000  0.4925780000000  0.5799600000000 1.0
C      1  0.5785860000000  0.5280260000000  0.4899370000000 1.0
C      1  0.5050640000000  0.4220640000000  0.5223610000000 1.0
C      1  0.5054050000000  0.5855170000000  0.4719950000000 1.0
C      1  0.4942470000000  0.4141270000000  0.4714720000000 1.0
C      1  0.4792060000000  0.5024840000000  0.5757250000000 1.0
C      1  0.4723540000000  0.4906510000000  0.4209920000000 1.0
C      1  0.5276070000000  0.5092330000000  0.4211350000000 1.0
C      1  0.4212850000000  0.4720880000000  0.4899970000000 1.0
C      1  0.4205530000000  0.5278840000000  0.5096970000000 1.0
C      1  0.5791410000000  0.4724180000000  0.5094660000000 1.0
C      1  0.4938090000000  0.4430590000000  0.5318630000000 1.0
C      1  0.4448010000000  0.5346030000000  0.4968060000000 1.0
C      1  0.5343230000000  0.4965300000000  0.4451530000000 1.0
C      1  0.5059640000000  0.5568060000000  0.5320140000000 1.0
C      1  0.4943680000000  0.5591170000000  0.4695300000000 1.0
C      1  0.5054340000000  0.4405610000000  0.4692690000000 1.0
C      1  0.5547000000000  0.4648160000000  0.4973810000000 1.0
C      1  0.4456270000000  0.4650010000000  0.5021840000000 1.0
C      1  0.5542420000000  0.5347380000000  0.5024570000000 1.0
C      1  0.4656870000000  0.5032900000000  0.4450080000000 1.0
C      1  0.5308500000000  0.5058180000000  0.5589170000000 1.0
C      1  0.4685860000000  0.4943550000000  0.5571860000000 1.0
C      1  0.4454330000000  0.4974960000000  0.5347980000000 1.0
C      1  0.5308560000000  0.4410270000000  0.4941410000000 1.0
C      1  0.4975050000000  0.5350700000000  0.4459210000000 1.0
C      1  0.5547080000000  0.5026820000000  0.5350220000000 1.0
C      1  0.5555560000000  0.4959360000000  0.4661650000000 1.0
C      1  0.4443340000000  0.5037920000000  0.4659120000000 1.0
C      1  0.4687710000000  0.5582120000000  0.4946650000000 1.0
C      1  0.4682400000000  0.4431970000000  0.5050340000000 1.0
C      1  0.5314850000000  0.5566930000000  0.5053220000000 1.0
C      1  0.5024630000000  0.4647450000000  0.4457570000000 1.0
C      1  0.5058270000000  0.5310110000000  0.5585040000000 1.0
C      1  0.4938830000000  0.4685820000000  0.5572850000000 1.0
C      1  0.5603570000000  0.4751030000000  0.5519940000000 1.0
C      1  0.4730280000000  0.5478350000000  0.5579990000000 1.0
C      1  0.5462860000000  0.5602870000000  0.4734110000000 1.0
C      1  0.4434700000000  0.5246950000000  0.5514710000000 1.0
C      1  0.5608020000000  0.5246120000000  0.4485930000000 1.0
C      1  0.4390750000000  0.4752550000000  0.4483400000000 1.0
C      1  0.5225740000000  0.4515580000000  0.5599400000000 1.0
C      1  0.4743240000000  0.4482330000000  0.4419750000000 1.0
C      1  0.5255790000000  0.5516430000000  0.4421790000000 1.0
C      1  0.4533880000000  0.4396610000000  0.4731880000000 1.0
C      1  0.5514910000000  0.4388920000000  0.5240500000000 1.0
C      1  0.4491800000000  0.5603560000000  0.5255430000000 1.0
C      1  0.4766330000000  0.5592190000000  0.5502780000000 1.0
C      1  0.5511960000000  0.4759800000000  0.5612280000000 1.0
C      1  0.5570430000000  0.5514320000000  0.4747790000000 1.0
C      1  0.5224860000000  0.4403630000000  0.5491700000000 1.0
C      1  0.5272990000000  0.5600610000000  0.4532980000000 1.0
C      1  0.4724540000000  0.4398610000000  0.4531150000000 1.0
C      1  0.4550070000000  0.5271550000000  0.5591130000000 1.0
C      1  0.4484300000000  0.4750480000000  0.4393520000000 1.0
C      1  0.5514930000000  0.5248150000000  0.4395730000000 1.0
C      1  0.4425610000000  0.4484420000000  0.4746210000000 1.0
C      1  0.4398080000000  0.5513210000000  0.5253030000000 1.0
C      1  0.5605460000000  0.4481880000000  0.5254040000000 1.0
C      1  0.5294100000000  0.5399040000000  0.5514590000000 1.0
C      1  0.5402770000000  0.5508780000000  0.5290960000000 1.0
C      1  0.5514290000000  0.5285530000000  0.5397060000000 1.0
C      1  0.4701110000000  0.4601080000000  0.5509740000000 1.0
C      1  0.5285740000000  0.4598180000000  0.4487860000000 1.0
C      1  0.4713600000000  0.5399730000000  0.4488820000000 1.0
C      1  0.4594400000000  0.4491040000000  0.5287820000000 1.0
C      1  0.5402570000000  0.4484990000000  0.4708120000000 1.0
C      1  0.4596630000000  0.5511940000000  0.4709620000000 1.0
C      1  0.4483910000000  0.4715200000000  0.5392910000000 1.0
C      1  0.5513690000000  0.4707560000000  0.4603230000000 1.0
C      1  0.4485210000000  0.5290500000000  0.4602010000000 1.0
C      1  0.5403790000000  0.5289630000000  0.5513140000000 1.0
C      1  0.5513760000000  0.5394840000000  0.5286230000000 1.0
C      1  0.5294780000000  0.5507530000000  0.5403890000000 1.0
C      1  0.4592920000000  0.4711560000000  0.5507090000000 1.0
C      1  0.4603260000000  0.5290030000000  0.4487610000000 1.0
C      1  0.5396070000000  0.4708010000000  0.4487940000000 1.0
C      1  0.4484180000000  0.4605490000000  0.5283130000000 1.0
C      1  0.4484000000000  0.5399500000000  0.4711730000000 1.0
C      1  0.5514640000000  0.4598320000000  0.4712780000000 1.0
C      1  0.4701510000000  0.4492090000000  0.5400430000000 1.0
C      1  0.4708700000000  0.5512770000000  0.4600260000000 1.0
C      1  0.5290410000000  0.4484620000000  0.4598650000000 1.0
C      1  0.4824110000000  0.5003150000000  0.4646090000000 1.0
C      1  0.5006590000000  0.4647110000000  0.4824330000000 1.0
C      1  0.4645780000000  0.4827430000000  0.4998040000000 1.0
C      1  0.5175960000000  0.4994280000000  0.4647490000000 1.0
C      1  0.4823550000000  0.4999250000000  0.5347030000000 1.0
C      1  0.5178980000000  0.5000950000000  0.5357860000000 1.0
C      1  0.4992910000000  0.5349270000000  0.4825670000000 1.0
C      1  0.5001650000000  0.5348210000000  0.5179240000000 1.0
C      1  0.5001580000000  0.4650010000000  0.5177270000000 1.0
C      1  0.5353890000000  0.5169720000000  0.5001880000000 1.0
C      1  0.4642150000000  0.5176560000000  0.4994770000000 1.0
C      1  0.5355430000000  0.4819000000000  0.5000580000000 1.0
C      1  0.5002460000000  0.4822750000000  0.4646280000000 1.0
C      1  0.4642560000000  0.5006530000000  0.4823520000000 1.0
C      1  0.4824620000000  0.4655760000000  0.5001200000000 1.0
C      1  0.4997540000000  0.5174600000000  0.4647150000000 1.0
C      1  0.5000990000000  0.4821920000000  0.5348870000000 1.0
C      1  0.5005200000000  0.5173930000000  0.5356420000000 1.0
C      1  0.5356730000000  0.4989770000000  0.4826490000000 1.0
C      1  0.5355070000000  0.4998350000000  0.5179030000000 1.0
C      1  0.4646060000000  0.5001410000000  0.5173360000000 1.0
C      1  0.5175240000000  0.5341420000000  0.5003240000000 1.0
C      1  0.5179170000000  0.4641360000000  0.4997970000000 1.0
C      1  0.4820700000000  0.5352800000000  0.5000100000000 1.0
C      1  0.5782980000000  0.4630160000000  0.4992600000000 1.0
C      1  0.4638740000000  0.4972670000000  0.5799740000000 1.0
C      1  0.4974000000000  0.5814430000000  0.4612790000000 1.0
C      1  0.4214370000000  0.5370950000000  0.4993090000000 1.0
C      1  0.5776540000000  0.5373740000000  0.5001670000000 1.0
C      1  0.4221480000000  0.4628170000000  0.5002680000000 1.0
C      1  0.5388820000000  0.5021370000000  0.5800680000000 1.0
C      1  0.4631560000000  0.5010770000000  0.4218110000000 1.0
C      1  0.5368100000000  0.4988120000000  0.4219250000000 1.0
C      1  0.5023270000000  0.4182980000000  0.4608130000000 1.0
C      1  0.4963410000000  0.4204380000000  0.5339420000000 1.0
C      1  0.5029470000000  0.5792730000000  0.5342710000000 1.0
C      1  0.4605750000000  0.5793860000000  0.4984750000000 1.0
C      1  0.4960310000000  0.4641550000000  0.5802320000000 1.0
C      1  0.5784920000000  0.4989290000000  0.4627970000000 1.0
C      1  0.5390560000000  0.4199560000000  0.4979910000000 1.0
C      1  0.5343190000000  0.5803420000000  0.5054680000000 1.0
C      1  0.4652690000000  0.4195920000000  0.5052950000000 1.0
C      1  0.5014500000000  0.5396050000000  0.5793540000000 1.0
C      1  0.5002610000000  0.4625160000000  0.4222180000000 1.0
C      1  0.4997090000000  0.5373700000000  0.4223920000000 1.0
C      1  0.4213650000000  0.5010110000000  0.4627490000000 1.0
C      1  0.4220560000000  0.4995260000000  0.5371330000000 1.0
C      1  0.5782790000000  0.5010540000000  0.5367650000000 1.0
C      1  0.4617820000000  0.5754990000000  0.4727070000000 1.0
C      1  0.5753040000000  0.4755070000000  0.4654810000000 1.0
C      1  0.4709210000000  0.4615210000000  0.5752640000000 1.0
C      1  0.5380270000000  0.4241780000000  0.4723710000000 1.0
C      1  0.4597730000000  0.4239330000000  0.5288910000000 1.0
C      1  0.5398090000000  0.5761400000000  0.5289040000000 1.0
C      1  0.4246320000000  0.5244020000000  0.4654850000000 1.0
C      1  0.5749360000000  0.5244400000000  0.5338510000000 1.0
C      1  0.4252210000000  0.4760550000000  0.5339320000000 1.0
C      1  0.5275540000000  0.5384230000000  0.5756800000000 1.0
C      1  0.4762440000000  0.5346280000000  0.4253380000000 1.0
C      1  0.5237240000000  0.4652440000000  0.4252400000000 1.0
C      1  0.5752110000000  0.4655550000000  0.4758120000000 1.0
C      1  0.4720220000000  0.5756430000000  0.4624280000000 1.0
C      1  0.4609560000000  0.4717850000000  0.5752010000000 1.0
C      1  0.4246320000000  0.5343980000000  0.4757790000000 1.0
C      1  0.4252740000000  0.4658510000000  0.5236850000000 1.0
C      1  0.5747230000000  0.5345640000000  0.5235950000000 1.0
C      1  0.5277630000000  0.4240890000000  0.4621120000000 1.0
C      1  0.5284530000000  0.5754190000000  0.5378800000000 1.0
C      1  0.4710430000000  0.4246010000000  0.5380200000000 1.0
C      1  0.5379040000000  0.5280280000000  0.5756950000000 1.0
C      1  0.5339820000000  0.4753580000000  0.4251440000000 1.0
C      1  0.4659840000000  0.5245220000000  0.4251330000000 1.0
C      1  0.5650080000000  0.5445420000000  0.4992700000000 1.0
C      1  0.5438190000000  0.5006340000000  0.5663960000000 1.0
C      1  0.5008370000000  0.5670650000000  0.5428800000000 1.0
C      1  0.4346190000000  0.4553970000000  0.4992040000000 1.0
C      1  0.5658360000000  0.4555470000000  0.5003090000000 1.0
C      1  0.4340550000000  0.5442310000000  0.5001700000000 1.0
C      1  0.4570630000000  0.5003320000000  0.5669530000000 1.0
C      1  0.5440070000000  0.4996510000000  0.4345240000000 1.0
C      1  0.4559630000000  0.5002000000000  0.4344170000000 1.0
C      1  0.4986370000000  0.4327360000000  0.5427690000000 1.0
C      1  0.4995470000000  0.4325300000000  0.4565720000000 1.0
C      1  0.5002110000000  0.5672940000000  0.4568570000000 1.0
C      1  0.5422350000000  0.5673360000000  0.5004770000000 1.0
C      1  0.4997370000000  0.5443740000000  0.5654320000000 1.0
C      1  0.5658630000000  0.4999540000000  0.5443210000000 1.0
C      1  0.4574360000000  0.4326410000000  0.5002830000000 1.0
C      1  0.4557620000000  0.5656690000000  0.4999020000000 1.0
C      1  0.5439440000000  0.4336400000000  0.4993620000000 1.0
C      1  0.4986250000000  0.4569320000000  0.5672050000000 1.0
C      1  0.5006750000000  0.5446500000000  0.4350170000000 1.0
C      1  0.4992650000000  0.4552020000000  0.4348190000000 1.0
C      1  0.4344950000000  0.5005420000000  0.5445290000000 1.0
C      1  0.4341610000000  0.5003260000000  0.4558290000000 1.0
C      1  0.5656150000000  0.4995240000000  0.4560150000000 1.0
C      1  0.4881660000000  0.4778140000000  0.5686700000000 1.0
C      1  0.4784690000000  0.5716970000000  0.4891020000000 1.0
C      1  0.5887420000000  0.4915290000000  0.4816970000000 1.0
C      1  0.5112670000000  0.5219540000000  0.5722310000000 1.0
C      1  0.4919000000000  0.5184380000000  0.4120400000000 1.0
C      1  0.5080960000000  0.4814870000000  0.4119700000000 1.0
C      1  0.5211870000000  0.4276230000000  0.4886590000000 1.0
C      1  0.4785540000000  0.4338580000000  0.5112020000000 1.0
C      1  0.5212470000000  0.5660730000000  0.5115550000000 1.0
C      1  0.4113280000000  0.5084920000000  0.4818050000000 1.0
C      1  0.5883580000000  0.5087740000000  0.5176910000000 1.0
C      1  0.4120640000000  0.4917430000000  0.5179540000000 1.0
C      1  0.4775730000000  0.4885300000000  0.5687270000000 1.0
C      1  0.5886120000000  0.4818580000000  0.4914590000000 1.0
C      1  0.4891240000000  0.5718450000000  0.4789610000000 1.0
C      1  0.5214850000000  0.5115720000000  0.5723400000000 1.0
C      1  0.5178230000000  0.4912550000000  0.4117770000000 1.0
C      1  0.4821720000000  0.5086720000000  0.4117560000000 1.0
C      1  0.4114020000000  0.5181660000000  0.4915960000000 1.0
C      1  0.4120650000000  0.4819680000000  0.5081040000000 1.0
C      1  0.5881430000000  0.5185070000000  0.5079110000000 1.0
C      1  0.5105580000000  0.4276930000000  0.4785350000000 1.0
C      1  0.5157090000000  0.5658660000000  0.5241120000000 1.0
C      1  0.4841000000000  0.4340440000000  0.5237570000000 1.0
C      1  0.4649410000000  0.5144570000000  0.4540940000000 1.0
C      1  0.5148640000000  0.4526070000000  0.4658120000000 1.0
C      1  0.4542160000000  0.4648850000000  0.5136480000000 1.0
C      1  0.5350320000000  0.4853260000000  0.4542210000000 1.0
C      1  0.4652030000000  0.4851680000000  0.5460400000000 1.0
C      1  0.5344490000000  0.5147270000000  0.5471580000000 1.0
C      1  0.4850210000000  0.5470750000000  0.4659850000000 1.0
C      1  0.5148520000000  0.5454470000000  0.5357040000000 1.0
C      1  0.4848750000000  0.4543700000000  0.5352970000000 1.0
C      1  0.5456660000000  0.5350000000000  0.5139460000000 1.0
C      1  0.4541070000000  0.5358060000000  0.4859320000000 1.0
C      1  0.5456860000000  0.4638010000000  0.4862060000000 1.0
C      1  0.5137670000000  0.4638410000000  0.4546270000000 1.0
C      1  0.4538340000000  0.5146170000000  0.4649250000000 1.0
C      1  0.4651050000000  0.4543040000000  0.5146630000000 1.0
C      1  0.4861770000000  0.5359150000000  0.4547550000000 1.0
C      1  0.4847900000000  0.4652800000000  0.5461250000000 1.0
C      1  0.5149690000000  0.5343550000000  0.5468460000000 1.0
C      1  0.5460700000000  0.4851010000000  0.4651420000000 1.0
C      1  0.5456650000000  0.5137590000000  0.5358840000000 1.0
C      1  0.4542380000000  0.4862340000000  0.5352080000000 1.0
C      1  0.5347380000000  0.5455810000000  0.5149570000000 1.0
C      1  0.5344110000000  0.4527040000000  0.4851440000000 1.0
C      1  0.4654330000000  0.5467890000000  0.4853350000000 1.0
C      1  0.4781820000000  0.4893600000000  0.4996310000000 1.0
C      1  0.4889790000000  0.4997790000000  0.4780900000000 1.0
C      1  0.5001970000000  0.4782710000000  0.4890100000000 1.0
C      1  0.5218620000000  0.5103100000000  0.4999770000000 1.0
C      1  0.4778870000000  0.5110940000000  0.4999330000000 1.0
C      1  0.5221060000000  0.4885860000000  0.5003500000000 1.0
C      1  0.5110360000000  0.4999180000000  0.4782260000000 1.0
C      1  0.4891850000000  0.5000970000000  0.5214600000000 1.0
C      1  0.5112760000000  0.4997070000000  0.5220460000000 1.0
C      1  0.4998540000000  0.5213740000000  0.4891550000000 1.0
C      1  0.4997280000000  0.5213930000000  0.5111230000000 1.0
C      1  0.5004750000000  0.4783530000000  0.5108610000000 1.0
C      1  0.4893230000000  0.4787070000000  0.4998150000000 1.0
C      1  0.4999020000000  0.4889500000000  0.4781390000000 1.0
C      1  0.4779690000000  0.5000820000000  0.4888110000000 1.0
C      1  0.5107380000000  0.5209810000000  0.5000100000000 1.0
C      1  0.5113180000000  0.4779160000000  0.5001480000000 1.0
C      1  0.4887670000000  0.5216880000000  0.5002900000000 1.0
C      1  0.5001140000000  0.5107390000000  0.4782080000000 1.0
C      1  0.5004020000000  0.4890550000000  0.5215970000000 1.0
C      1  0.5000640000000  0.5107710000000  0.5219530000000 1.0
C      1  0.5220120000000  0.4995750000000  0.4891330000000 1.0
C      1  0.5220570000000  0.4994320000000  0.5111940000000 1.0
C      1  0.4781360000000  0.5003050000000  0.5106790000000 1.0
C      1  0.5645290000000  0.4572280000000  0.5162750000000 1.0
C      1  0.4605360000000  0.5150470000000  0.5653300000000 1.0
C      1  0.5153930000000  0.5652000000000  0.4597490000000 1.0
C      1  0.4358340000000  0.5426120000000  0.5158540000000 1.0
C      1  0.5630740000000  0.5433040000000  0.4833440000000 1.0
C      1  0.4364970000000  0.4565310000000  0.4831880000000 1.0
C      1  0.5419490000000  0.4850120000000  0.5648520000000 1.0
C      1  0.4574560000000  0.4843540000000  0.4357640000000 1.0
C      1  0.5425080000000  0.5155050000000  0.4359140000000 1.0
C      1  0.4843550000000  0.4346580000000  0.4595290000000 1.0
C      1  0.5134750000000  0.4338630000000  0.5412920000000 1.0
C      1  0.4854140000000  0.5650410000000  0.5422150000000 1.0
C      1  0.4576800000000  0.5639520000000  0.5157160000000 1.0
C      1  0.5133930000000  0.4593040000000  0.5663740000000 1.0
C      1  0.5639990000000  0.5151100000000  0.4575880000000 1.0
C      1  0.5422960000000  0.4353410000000  0.5149570000000 1.0
C      1  0.5401160000000  0.5659990000000  0.4853200000000 1.0
C      1  0.4595600000000  0.4339560000000  0.4850940000000 1.0
C      1  0.4845700000000  0.5413960000000  0.5633570000000 1.0
C      1  0.4833220000000  0.4564800000000  0.4367280000000 1.0
C      1  0.5166160000000  0.5433710000000  0.4369220000000 1.0
C      1  0.4357080000000  0.4846840000000  0.4573380000000 1.0
C      1  0.4367210000000  0.5165390000000  0.5436330000000 1.0
C      1  0.5645410000000  0.4840110000000  0.5428480000000 1.0
C      1  0.4865370000000  0.5403370000000  0.5241720000000 1.0
C      1  0.5402580000000  0.5230820000000  0.4864820000000 1.0
C      1  0.5242860000000  0.4873220000000  0.5417370000000 1.0
C      1  0.5137690000000  0.4593980000000  0.5240750000000 1.0
C      1  0.4879260000000  0.4594880000000  0.4760350000000 1.0
C      1  0.5120330000000  0.5402350000000  0.4762130000000 1.0
C      1  0.4596870000000  0.4765790000000  0.4861460000000 1.0
C      1  0.5405570000000  0.4757050000000  0.5137500000000 1.0
C      1  0.4587310000000  0.5238630000000  0.5123090000000 1.0
C      1  0.4762380000000  0.5134960000000  0.5399020000000 1.0
C      1  0.5238960000000  0.5129680000000  0.4597350000000 1.0
C      1  0.4761040000000  0.4868020000000  0.4595550000000 1.0
C      1  0.5405530000000  0.4862030000000  0.5241980000000 1.0
C      1  0.5236400000000  0.5389080000000  0.4866800000000 1.0
C      1  0.4877190000000  0.5238080000000  0.5412790000000 1.0
C      1  0.4597950000000  0.5137110000000  0.5234920000000 1.0
C      1  0.4586710000000  0.4878780000000  0.4760450000000 1.0
C      1  0.5412440000000  0.5117940000000  0.4763700000000 1.0
C      1  0.4763160000000  0.4608810000000  0.4864630000000 1.0
C      1  0.4757450000000  0.5406410000000  0.5135100000000 1.0
C      1  0.5242530000000  0.4581720000000  0.5126310000000 1.0
C      1  0.5138290000000  0.4758630000000  0.5402840000000 1.0
C      1  0.5134860000000  0.5235140000000  0.4597630000000 1.0
C      1  0.4865240000000  0.4762630000000  0.4596090000000 1.0
C      1  0.5535250000000  0.4370750000000  0.4877660000000 1.0
C      1  0.4372180000000  0.4887650000000  0.5530710000000 1.0
C      1  0.4887550000000  0.5534480000000  0.4376110000000 1.0
C      1  0.4463620000000  0.5625500000000  0.4880600000000 1.0
C      1  0.5525870000000  0.5633220000000  0.5115670000000 1.0
C      1  0.4470500000000  0.4366840000000  0.5114120000000 1.0
C      1  0.5632990000000  0.5119770000000  0.5531390000000 1.0
C      1  0.4369530000000  0.5122220000000  0.4467420000000 1.0
C      1  0.5629010000000  0.4876380000000  0.4468820000000 1.0
C      1  0.5111680000000  0.4464030000000  0.4373990000000 1.0
C      1  0.4875010000000  0.4468270000000  0.5626730000000 1.0
C      1  0.5116320000000  0.5536120000000  0.5621250000000 1.0
C      1  0.4364660000000  0.5530460000000  0.4882490000000 1.0
C      1  0.4875010000000  0.4368340000000  0.5528380000000 1.0
C      1  0.5530030000000  0.4876370000000  0.4371110000000 1.0
C      1  0.5634220000000  0.4466900000000  0.4882160000000 1.0
C      1  0.5621490000000  0.5533630000000  0.5109900000000 1.0
C      1  0.4374880000000  0.4466580000000  0.5109140000000 1.0
C      1  0.5122050000000  0.5636590000000  0.5526090000000 1.0
C      1  0.5114410000000  0.4366190000000  0.4470940000000 1.0
C      1  0.4884160000000  0.5632040000000  0.4473450000000 1.0
C      1  0.4469300000000  0.5122100000000  0.4370260000000 1.0
C      1  0.4467960000000  0.4885250000000  0.5629920000000 1.0
C      1  0.5534860000000  0.5123210000000  0.5628940000000 1.0
C      1  0.5825840000000  0.5316210000000  0.5118810000000 1.0
C      1  0.5334770000000  0.5153990000000  0.5807310000000 1.0
C      1  0.5165770000000  0.5789490000000  0.5309770000000 1.0
C      1  0.4174430000000  0.4688060000000  0.5120130000000 1.0
C      1  0.5831230000000  0.4686700000000  0.4874960000000 1.0
C      1  0.4167300000000  0.5313420000000  0.4875420000000 1.0
C      1  0.4671150000000  0.4838380000000  0.5793340000000 1.0
C      1  0.5309650000000  0.4870890000000  0.4171850000000 1.0
C      1  0.4690180000000  0.5128200000000  0.4171330000000 1.0
C      1  0.4827360000000  0.4210370000000  0.5308150000000 1.0
C      1  0.5152810000000  0.4190710000000  0.4666700000000 1.0
C      1  0.4844470000000  0.5805740000000  0.4671320000000 1.0
C      1  0.5388600000000  0.5845940000000  0.5175090000000 1.0
C      1  0.5147300000000  0.5342800000000  0.5804180000000 1.0
C      1  0.5829420000000  0.5128060000000  0.5308600000000 1.0
C      1  0.4607400000000  0.4155510000000  0.5174050000000 1.0
C      1  0.4662480000000  0.5802260000000  0.4853720000000 1.0
C      1  0.5334370000000  0.4191670000000  0.4848870000000 1.0
C      1  0.4828400000000  0.4676400000000  0.5794860000000 1.0
C      1  0.4879780000000  0.5316200000000  0.4175130000000 1.0
C      1  0.5120070000000  0.4682830000000  0.4173970000000 1.0
C      1  0.4173880000000  0.4877730000000  0.5310860000000 1.0
C      1  0.4166130000000  0.5126980000000  0.4685870000000 1.0
C      1  0.5833540000000  0.4872510000000  0.4685320000000 1.0
C      1  0.4754750000000  0.4865230000000  0.5349000000000 1.0
C      1  0.4860860000000  0.5354810000000  0.4758030000000 1.0
C      1  0.5354710000000  0.4749230000000  0.4867520000000 1.0
C      1  0.5245820000000  0.5134020000000  0.5358380000000 1.0
C      1  0.4755920000000  0.5137190000000  0.4647310000000 1.0
C      1  0.5243740000000  0.4859960000000  0.4648460000000 1.0
C      1  0.5138390000000  0.4641420000000  0.4756800000000 1.0
C      1  0.4863990000000  0.4650330000000  0.5244480000000 1.0
C      1  0.5137060000000  0.5347360000000  0.5249070000000 1.0
C      1  0.4643530000000  0.5246980000000  0.4864110000000 1.0
C      1  0.5354650000000  0.5237800000000  0.5136030000000 1.0
C      1  0.4644900000000  0.4760240000000  0.5131730000000 1.0
C      1  0.4863840000000  0.4756960000000  0.5351180000000 1.0
C      1  0.5354360000000  0.4857580000000  0.4758300000000 1.0
C      1  0.4753280000000  0.5354740000000  0.4865650000000 1.0
C      1  0.5138180000000  0.5240600000000  0.5358480000000 1.0
C      1  0.5134990000000  0.4750980000000  0.4647550000000 1.0
C      1  0.4864640000000  0.5246030000000  0.4648090000000 1.0
C      1  0.4644570000000  0.5138850000000  0.4755840000000 1.0
C      1  0.4645130000000  0.4868210000000  0.5241240000000 1.0
C      1  0.5354560000000  0.5131110000000  0.5247870000000 1.0
C      1  0.5245910000000  0.4640690000000  0.4864390000000 1.0
C      1  0.5244690000000  0.5344600000000  0.5138230000000 1.0
C      1  0.4754940000000  0.4653340000000  0.5134860000000 1.0
C      1  0.4931470000000  0.4185800000000  0.4980140000000 1.0
C      1  0.4132700000000  0.4939380000000  0.4835960000000 1.0
C      1  0.4936920000000  0.4835110000000  0.4138840000000 1.0
C      1  0.5063830000000  0.5811160000000  0.4984990000000 1.0
C      1  0.4830830000000  0.5799220000000  0.5012830000000 1.0
C      1  0.5165250000000  0.4194250000000  0.5008750000000 1.0
C      1  0.5867660000000  0.5061360000000  0.4835660000000 1.0
C      1  0.4138210000000  0.5062590000000  0.5163260000000 1.0
C      1  0.5864720000000  0.4942140000000  0.5159030000000 1.0
C      1  0.5062980000000  0.5164090000000  0.4139890000000 1.0
C      1  0.4992540000000  0.5167700000000  0.5807150000000 1.0
C      1  0.5033600000000  0.4932630000000  0.5809580000000 1.0
C      1  0.4137940000000  0.4836920000000  0.4935960000000 1.0
C      1  0.4983870000000  0.4187390000000  0.4837490000000 1.0
C      1  0.4839290000000  0.4940100000000  0.4136490000000 1.0
C      1  0.5862740000000  0.5165310000000  0.4934610000000 1.0
C      1  0.5865560000000  0.4839540000000  0.5059100000000 1.0
C      1  0.4133500000000  0.5162740000000  0.5061430000000 1.0
C      1  0.5011900000000  0.5808950000000  0.4842310000000 1.0
C      1  0.5040970000000  0.4192750000000  0.5077120000000 1.0
C      1  0.4954140000000  0.5802290000000  0.5081980000000 1.0
C      1  0.5160570000000  0.5059070000000  0.4137400000000 1.0
C      1  0.5162690000000  0.4995220000000  0.5808110000000 1.0
C      1  0.4931910000000  0.5037180000000  0.5808820000000 1.0
C      1  0.4676460000000  0.4683120000000  0.4756580000000 1.0
C      1  0.5323180000000  0.5313960000000  0.4759530000000 1.0
C      1  0.4649010000000  0.5339330000000  0.5203280000000 1.0
C      1  0.5340700000000  0.4645970000000  0.5207010000000 1.0
C      1  0.5349720000000  0.5197760000000  0.4663150000000 1.0
C      1  0.4679600000000  0.5241010000000  0.5318280000000 1.0
C      1  0.5204610000000  0.5342940000000  0.4663680000000 1.0
C      1  0.5243960000000  0.4678320000000  0.5320450000000 1.0
C      1  0.4795440000000  0.4654540000000  0.4661600000000 1.0
C      1  0.4649910000000  0.4799490000000  0.4660110000000 1.0
C      1  0.4796830000000  0.5335690000000  0.5347920000000 1.0
C      1  0.5341330000000  0.4792440000000  0.5353570000000 1.0
C      1  0.4618780000000  0.5392460000000  0.5583230000000 1.0
C      1  0.5328260000000  0.4487550000000  0.5516330000000 1.0
C      1  0.5375770000000  0.5612140000000  0.4626230000000 1.0
C      1  0.4621220000000  0.4387330000000  0.4623980000000 1.0
END
