TITL C-1892083-4185-67 -5.6827860591086e-07 1000000 -3123.52232056179 0 0 440 (C1) n - 1
REM
REM in /nfs/bkarasulu/CARBON/AIRSS/Generating-Clusters/GAP-ML-2020/Higher-Symm/Selected-Sizes/TryA-Only_Ih-Symm/Larger-Clusters
REM
REM
REM
REM
REM
REM ./C.cell (2cf5181f0f1d4d5b12b972d32ad12063)
REM
REM compiler GCC version 9.2.1 20190827 (Red Hat 9.2.1-1)
REM options -cpp -mtune=generic -march=x86-64 -g -O0 -fpre-include=/usr/include/finclude/math-vector-fortran.h
REM seed 262665199 1778189967 -1359022622 1123649536 -1115422085 -374009104 1962345465 640613603 801874102 -51710544 -1799646159 -1968403774 -597779458 1098059163 -2117024517 -1876746599 -232172481 -1459333454 1779917370 1335259053 -97175032 654792190 -1024805000 -456502324 2145484628 -1317502252 1574296768 -782475602 -955015345 -1536459135 768930273 -192288397 -610476505
REM
CELL 1.54180  100.00000  100.00000  100.00000   90.00000   90.00000   90.00000
LATT -1
SFAC C  
C      1  0.5344190000000  0.5303120000000  0.4917010000000 1.0
C      1  0.5307050000000  0.4923910000000  0.5391750000000 1.0
C      1  0.4920750000000  0.5354730000000  0.5300490000000 1.0
C      1  0.4575350000000  0.4682890000000  0.4941540000000 1.0
C      1  0.5312250000000  0.4706950000000  0.5081560000000 1.0
C      1  0.4680150000000  0.5288730000000  0.5083950000000 1.0
C      1  0.4697270000000  0.5089870000000  0.5401470000000 1.0
C      1  0.5278900000000  0.5080950000000  0.4683520000000 1.0
C      1  0.4719050000000  0.4911310000000  0.4683150000000 1.0
C      1  0.5076220000000  0.4663840000000  0.5292750000000 1.0
C      1  0.4918720000000  0.4604940000000  0.4673180000000 1.0
C      1  0.5080920000000  0.5402540000000  0.4684930000000 1.0
C      1  0.5322400000000  0.5295290000000  0.5081160000000 1.0
C      1  0.5278730000000  0.4916560000000  0.4675080000000 1.0
C      1  0.4919450000000  0.5401940000000  0.4685570000000 1.0
C      1  0.4620060000000  0.4682830000000  0.5082440000000 1.0
C      1  0.5337680000000  0.4695950000000  0.4918430000000 1.0
C      1  0.4656430000000  0.5295040000000  0.4921570000000 1.0
C      1  0.4719800000000  0.5078700000000  0.4688190000000 1.0
C      1  0.5309750000000  0.5085440000000  0.5394710000000 1.0
C      1  0.4693290000000  0.4943000000000  0.5422830000000 1.0
C      1  0.5082170000000  0.4593360000000  0.4681240000000 1.0
C      1  0.4909940000000  0.4685010000000  0.5286650000000 1.0
C      1  0.5084460000000  0.5355570000000  0.5299550000000 1.0
C      1  0.5481030000000  0.4521950000000  0.5176200000000 1.0
C      1  0.4481020000000  0.5171200000000  0.5539160000000 1.0
C      1  0.5175480000000  0.5544550000000  0.4470230000000 1.0
C      1  0.4507180000000  0.5479480000000  0.5172230000000 1.0
C      1  0.5511960000000  0.5503790000000  0.4819630000000 1.0
C      1  0.4464380000000  0.4473440000000  0.4817290000000 1.0
C      1  0.5521170000000  0.4825610000000  0.5533410000000 1.0
C      1  0.4532380000000  0.4818940000000  0.4510920000000 1.0
C      1  0.5465830000000  0.5178660000000  0.4514210000000 1.0
C      1  0.4825830000000  0.4457070000000  0.4467350000000 1.0
C      1  0.5173610000000  0.4499080000000  0.5493410000000 1.0
C      1  0.4825840000000  0.5516150000000  0.5505040000000 1.0
C      1  0.5503230000000  0.4495060000000  0.4828180000000 1.0
C      1  0.4539380000000  0.5172080000000  0.4515440000000 1.0
C      1  0.5182160000000  0.5516430000000  0.5502740000000 1.0
C      1  0.4489640000000  0.5499550000000  0.4822280000000 1.0
C      1  0.5495200000000  0.5481840000000  0.5169990000000 1.0
C      1  0.4472260000000  0.4477600000000  0.5170980000000 1.0
C      1  0.5480460000000  0.4824760000000  0.4504040000000 1.0
C      1  0.4481840000000  0.4819420000000  0.5539400000000 1.0
C      1  0.5526130000000  0.5176860000000  0.5534880000000 1.0
C      1  0.4822560000000  0.4508320000000  0.5472990000000 1.0
C      1  0.5176790000000  0.4453640000000  0.4467120000000 1.0
C      1  0.4826590000000  0.5544520000000  0.4470430000000 1.0
C      1  0.4593090000000  0.5409220000000  0.4405230000000 1.0
C      1  0.5406760000000  0.4403900000000  0.4582120000000 1.0
C      1  0.4409640000000  0.4579830000000  0.5403010000000 1.0
C      1  0.5408510000000  0.4588520000000  0.4408880000000 1.0
C      1  0.4585710000000  0.4583550000000  0.5582780000000 1.0
C      1  0.5421530000000  0.5411150000000  0.5588840000000 1.0
C      1  0.4594120000000  0.5593440000000  0.4579380000000 1.0
C      1  0.5416670000000  0.5583360000000  0.5408020000000 1.0
C      1  0.4590380000000  0.4404410000000  0.5409390000000 1.0
C      1  0.5594010000000  0.5409670000000  0.5403390000000 1.0
C      1  0.4425780000000  0.5410640000000  0.4585200000000 1.0
C      1  0.5577150000000  0.4582090000000  0.4591570000000 1.0
C      1  0.4588000000000  0.5403610000000  0.5591240000000 1.0
C      1  0.5409540000000  0.4418650000000  0.5413250000000 1.0
C      1  0.4419620000000  0.4578330000000  0.4583480000000 1.0
C      1  0.5416730000000  0.4592420000000  0.5589590000000 1.0
C      1  0.4590740000000  0.4582030000000  0.4403960000000 1.0
C      1  0.5409690000000  0.5412710000000  0.4404140000000 1.0
C      1  0.4590350000000  0.5578870000000  0.5411150000000 1.0
C      1  0.5408900000000  0.5595750000000  0.4577560000000 1.0
C      1  0.4594900000000  0.4400070000000  0.4578600000000 1.0
C      1  0.5578800000000  0.5413110000000  0.4583790000000 1.0
C      1  0.4413680000000  0.5404880000000  0.5407150000000 1.0
C      1  0.5589070000000  0.4589060000000  0.5407330000000 1.0
C      1  0.5276410000000  0.5319210000000  0.5755820000000 1.0
C      1  0.5323570000000  0.5749560000000  0.5265030000000 1.0
C      1  0.5750660000000  0.5263270000000  0.5299690000000 1.0
C      1  0.4733190000000  0.4674390000000  0.5746120000000 1.0
C      1  0.5269240000000  0.4690030000000  0.4243440000000 1.0
C      1  0.4734300000000  0.5309760000000  0.4244030000000 1.0
C      1  0.4695320000000  0.4247020000000  0.5264080000000 1.0
C      1  0.5309690000000  0.4243750000000  0.4731140000000 1.0
C      1  0.4686540000000  0.5754690000000  0.4729560000000 1.0
C      1  0.4255240000000  0.4731240000000  0.5302210000000 1.0
C      1  0.5740260000000  0.4726850000000  0.4686930000000 1.0
C      1  0.4263330000000  0.5263920000000  0.4675040000000 1.0
C      1  0.5268130000000  0.5311420000000  0.4243810000000 1.0
C      1  0.5316260000000  0.5757800000000  0.4726790000000 1.0
C      1  0.5739580000000  0.5265380000000  0.4677280000000 1.0
C      1  0.4729240000000  0.4682100000000  0.4237520000000 1.0
C      1  0.5267130000000  0.4686570000000  0.5749560000000 1.0
C      1  0.4735190000000  0.5311100000000  0.5755980000000 1.0
C      1  0.4698320000000  0.4248740000000  0.4731960000000 1.0
C      1  0.5313660000000  0.4252680000000  0.5273260000000 1.0
C      1  0.4681070000000  0.5746340000000  0.5267240000000 1.0
C      1  0.4258440000000  0.4727370000000  0.4675180000000 1.0
C      1  0.5746940000000  0.4731770000000  0.5302780000000 1.0
C      1  0.4255190000000  0.5259310000000  0.5305160000000 1.0
C      1  0.4781570000000  0.5709210000000  0.5357180000000 1.0
C      1  0.5708490000000  0.5362140000000  0.4774750000000 1.0
C      1  0.5361380000000  0.4784260000000  0.5716330000000 1.0
C      1  0.5215560000000  0.4291700000000  0.5367020000000 1.0
C      1  0.4790100000000  0.4280990000000  0.4634200000000 1.0
C      1  0.5218800000000  0.5724990000000  0.4632260000000 1.0
C      1  0.4284630000000  0.4629570000000  0.4771840000000 1.0
C      1  0.5696680000000  0.4645990000000  0.5204360000000 1.0
C      1  0.4303340000000  0.5343640000000  0.5204880000000 1.0
C      1  0.4643000000000  0.5211840000000  0.5720140000000 1.0
C      1  0.5351260000000  0.5210320000000  0.4294650000000 1.0
C      1  0.4645340000000  0.4783190000000  0.4288800000000 1.0
C      1  0.4783500000000  0.5723720000000  0.4633940000000 1.0
C      1  0.5702580000000  0.5348860000000  0.5200350000000 1.0
C      1  0.5356770000000  0.4789020000000  0.4292650000000 1.0
C      1  0.5216510000000  0.4274870000000  0.4631970000000 1.0
C      1  0.4793810000000  0.4293130000000  0.5352150000000 1.0
C      1  0.5223820000000  0.5711160000000  0.5355560000000 1.0
C      1  0.4290330000000  0.4637380000000  0.5206450000000 1.0
C      1  0.5703880000000  0.4632020000000  0.4784800000000 1.0
C      1  0.4295210000000  0.5357430000000  0.4775130000000 1.0
C      1  0.4652510000000  0.5207070000000  0.4294370000000 1.0
C      1  0.5368480000000  0.5221070000000  0.5719020000000 1.0
C      1  0.4637670000000  0.4772230000000  0.5718300000000 1.0
C      1  0.5218680000000  0.4489290000000  0.5152270000000 1.0
C      1  0.4511740000000  0.5142800000000  0.5267130000000 1.0
C      1  0.5147930000000  0.5275860000000  0.4498200000000 1.0
C      1  0.4765640000000  0.5509200000000  0.5149030000000 1.0
C      1  0.5246350000000  0.5514830000000  0.4846540000000 1.0
C      1  0.4734840000000  0.4507760000000  0.4842510000000 1.0
C      1  0.5491750000000  0.4849220000000  0.5263170000000 1.0
C      1  0.4493980000000  0.4846170000000  0.4768400000000 1.0
C      1  0.5504160000000  0.5151360000000  0.4770460000000 1.0
C      1  0.4844510000000  0.4726850000000  0.4485670000000 1.0
C      1  0.5145890000000  0.4763040000000  0.5505730000000 1.0
C      1  0.4858890000000  0.5255030000000  0.5513280000000 1.0
C      1  0.5238770000000  0.4481050000000  0.4851880000000 1.0
C      1  0.4496330000000  0.5144470000000  0.4775300000000 1.0
C      1  0.5153420000000  0.5253260000000  0.5510360000000 1.0
C      1  0.4752870000000  0.5509140000000  0.4848580000000 1.0
C      1  0.5235750000000  0.5514060000000  0.5147250000000 1.0
C      1  0.4744230000000  0.4500270000000  0.5153220000000 1.0
C      1  0.5500260000000  0.4845770000000  0.4767860000000 1.0
C      1  0.4515000000000  0.4842180000000  0.5272220000000 1.0
C      1  0.5495700000000  0.5148010000000  0.5263650000000 1.0
C      1  0.4850700000000  0.4764850000000  0.5506260000000 1.0
C      1  0.5138650000000  0.4724450000000  0.4495020000000 1.0
C      1  0.4854330000000  0.5276870000000  0.4499000000000 1.0
C      1  0.4929280000000  0.4277590000000  0.4612300000000 1.0
C      1  0.4276410000000  0.4606060000000  0.4912780000000 1.0
C      1  0.4657660000000  0.4922430000000  0.4315970000000 1.0
C      1  0.5077390000000  0.5728860000000  0.4611940000000 1.0
C      1  0.4924810000000  0.5704730000000  0.5369600000000 1.0
C      1  0.5074190000000  0.4300180000000  0.5380980000000 1.0
C      1  0.5705590000000  0.5377360000000  0.4915850000000 1.0
C      1  0.4325260000000  0.5330300000000  0.5062520000000 1.0
C      1  0.5671680000000  0.4665400000000  0.5064660000000 1.0
C      1  0.5327030000000  0.5072180000000  0.4323480000000 1.0
C      1  0.4622160000000  0.5069370000000  0.5724020000000 1.0
C      1  0.5381980000000  0.4926080000000  0.5718460000000 1.0
C      1  0.4933760000000  0.4319210000000  0.5332810000000 1.0
C      1  0.4289100000000  0.4618770000000  0.5064690000000 1.0
C      1  0.4617260000000  0.4914260000000  0.5725780000000 1.0
C      1  0.5080520000000  0.5704960000000  0.5368610000000 1.0
C      1  0.4924760000000  0.5728200000000  0.4612760000000 1.0
C      1  0.5077750000000  0.4268750000000  0.4606350000000 1.0
C      1  0.5679040000000  0.5333900000000  0.5058900000000 1.0
C      1  0.4297330000000  0.5370290000000  0.4916830000000 1.0
C      1  0.5697750000000  0.4617090000000  0.4925510000000 1.0
C      1  0.5385900000000  0.5079370000000  0.5720770000000 1.0
C      1  0.4680750000000  0.5069380000000  0.4323530000000 1.0
C      1  0.5370060000000  0.4929400000000  0.4307650000000 1.0
C      1  0.4922620000000  0.5348850000000  0.4911870000000 1.0
C      1  0.5348670000000  0.4922330000000  0.4921230000000 1.0
C      1  0.4926250000000  0.4939350000000  0.5341160000000 1.0
C      1  0.5080330000000  0.4647420000000  0.4906040000000 1.0
C      1  0.4918790000000  0.4655440000000  0.5044880000000 1.0
C      1  0.5077110000000  0.5349150000000  0.5061940000000 1.0
C      1  0.4655260000000  0.5062490000000  0.4931770000000 1.0
C      1  0.5359120000000  0.5068020000000  0.5070650000000 1.0
C      1  0.4671150000000  0.4914720000000  0.5092200000000 1.0
C      1  0.5080790000000  0.5091060000000  0.5340180000000 1.0
C      1  0.4925970000000  0.5078870000000  0.4576470000000 1.0
C      1  0.5067310000000  0.4931130000000  0.4579610000000 1.0
C      1  0.4926000000000  0.5347530000000  0.5062620000000 1.0
C      1  0.5355420000000  0.4932450000000  0.5070340000000 1.0
C      1  0.4923410000000  0.4937460000000  0.4551000000000 1.0
C      1  0.5066650000000  0.4653170000000  0.5058510000000 1.0
C      1  0.4924560000000  0.4664330000000  0.4898100000000 1.0
C      1  0.5079380000000  0.5350770000000  0.4911180000000 1.0
C      1  0.4648710000000  0.5056580000000  0.5076390000000 1.0
C      1  0.5350700000000  0.5077430000000  0.4922410000000 1.0
C      1  0.4660240000000  0.4905120000000  0.4929860000000 1.0
C      1  0.5068480000000  0.5073600000000  0.4595050000000 1.0
C      1  0.4929260000000  0.5093510000000  0.5343210000000 1.0
C      1  0.5078460000000  0.4932440000000  0.5338700000000 1.0
C      1  0.5173400000000  0.4889380000000  0.5452550000000 1.0
C      1  0.4883170000000  0.5438910000000  0.5177700000000 1.0
C      1  0.5439260000000  0.5189370000000  0.4887500000000 1.0
C      1  0.4833490000000  0.5131050000000  0.5458650000000 1.0
C      1  0.5170320000000  0.5174870000000  0.4609450000000 1.0
C      1  0.4828200000000  0.4834790000000  0.4589630000000 1.0
C      1  0.5102340000000  0.4565120000000  0.5177750000000 1.0
C      1  0.4860570000000  0.4559410000000  0.4805940000000 1.0
C      1  0.5120490000000  0.5463970000000  0.4816640000000 1.0
C      1  0.4549480000000  0.4812590000000  0.4892600000000 1.0
C      1  0.5378280000000  0.4824860000000  0.5165980000000 1.0
C      1  0.4624470000000  0.5166170000000  0.5170390000000 1.0
C      1  0.5164320000000  0.4824900000000  0.4605850000000 1.0
C      1  0.4879440000000  0.5461760000000  0.4817560000000 1.0
C      1  0.5382730000000  0.5174890000000  0.5167410000000 1.0
C      1  0.4827370000000  0.5177730000000  0.4609590000000 1.0
C      1  0.5178040000000  0.5126860000000  0.5456150000000 1.0
C      1  0.4821660000000  0.4884930000000  0.5435660000000 1.0
C      1  0.5116150000000  0.4532580000000  0.4814390000000 1.0
C      1  0.4843290000000  0.4610130000000  0.5166640000000 1.0
C      1  0.5119260000000  0.5441690000000  0.5176550000000 1.0
C      1  0.4578200000000  0.4812370000000  0.5151030000000 1.0
C      1  0.5434430000000  0.4808590000000  0.4885290000000 1.0
C      1  0.4565420000000  0.5176630000000  0.4893110000000 1.0
C      1  0.5702690000000  0.5064840000000  0.4559830000000 1.0
C      1  0.5071630000000  0.4557150000000  0.5718110000000 1.0
C      1  0.4557280000000  0.5717260000000  0.5067730000000 1.0
C      1  0.4296240000000  0.4925600000000  0.4555040000000 1.0
C      1  0.5733610000000  0.4927400000000  0.5433700000000 1.0
C      1  0.4272750000000  0.5065760000000  0.5438100000000 1.0
C      1  0.4933050000000  0.5444240000000  0.5728080000000 1.0
C      1  0.5072720000000  0.5445430000000  0.4256380000000 1.0
C      1  0.4928850000000  0.4551390000000  0.4252100000000 1.0
C      1  0.5432980000000  0.4281150000000  0.5071130000000 1.0
C      1  0.4566210000000  0.4267310000000  0.4926040000000 1.0
C      1  0.5445360000000  0.5726330000000  0.4923800000000 1.0
C      1  0.5735260000000  0.5069770000000  0.5433380000000 1.0
C      1  0.5073310000000  0.4553440000000  0.4254310000000 1.0
C      1  0.4557620000000  0.5722070000000  0.4926880000000 1.0
C      1  0.4274120000000  0.4924470000000  0.5437060000000 1.0
C      1  0.5707640000000  0.4925040000000  0.4561740000000 1.0
C      1  0.4298080000000  0.5065050000000  0.4555490000000 1.0
C      1  0.4928940000000  0.5445210000000  0.4256280000000 1.0
C      1  0.5075870000000  0.5446480000000  0.5727620000000 1.0
C      1  0.4932350000000  0.4555330000000  0.5711200000000 1.0
C      1  0.5434300000000  0.4273450000000  0.4930540000000 1.0
C      1  0.4565940000000  0.4265950000000  0.5067560000000 1.0
C      1  0.5445820000000  0.5720710000000  0.5064590000000 1.0
C      1  0.5629280000000  0.5067590000000  0.4777530000000 1.0
C      1  0.5067660000000  0.4768580000000  0.5632960000000 1.0
C      1  0.4768510000000  0.5634990000000  0.5067650000000 1.0
C      1  0.4367660000000  0.4925390000000  0.4772200000000 1.0
C      1  0.5613740000000  0.4926750000000  0.5231120000000 1.0
C      1  0.4390940000000  0.5065650000000  0.5236420000000 1.0
C      1  0.4937300000000  0.5244580000000  0.5638340000000 1.0
C      1  0.5071990000000  0.5241530000000  0.4374960000000 1.0
C      1  0.4925230000000  0.4755740000000  0.4363010000000 1.0
C      1  0.5216500000000  0.4358920000000  0.5072400000000 1.0
C      1  0.4759180000000  0.4383760000000  0.4928250000000 1.0
C      1  0.5236300000000  0.5640960000000  0.4926770000000 1.0
C      1  0.5615620000000  0.5068960000000  0.5231110000000 1.0
C      1  0.5067420000000  0.4755900000000  0.4367520000000 1.0
C      1  0.4764050000000  0.5635250000000  0.4928740000000 1.0
C      1  0.4390280000000  0.4925270000000  0.5242180000000 1.0
C      1  0.5627620000000  0.4927640000000  0.4778250000000 1.0
C      1  0.4367700000000  0.5065090000000  0.4775910000000 1.0
C      1  0.4930010000000  0.5242020000000  0.4374870000000 1.0
C      1  0.5075950000000  0.5245950000000  0.5637350000000 1.0
C      1  0.4928250000000  0.4769710000000  0.5633360000000 1.0
C      1  0.5223480000000  0.4356920000000  0.4932660000000 1.0
C      1  0.4768330000000  0.4381660000000  0.5068360000000 1.0
C      1  0.5232630000000  0.5640520000000  0.5065890000000 1.0
C      1  0.5162050000000  0.4759540000000  0.5102110000000 1.0
C      1  0.4730090000000  0.5153190000000  0.5272430000000 1.0
C      1  0.5145140000000  0.5272310000000  0.4717420000000 1.0
C      1  0.4833100000000  0.5246200000000  0.5108900000000 1.0
C      1  0.5191930000000  0.5250750000000  0.4850420000000 1.0
C      1  0.4867310000000  0.4781760000000  0.4823520000000 1.0
C      1  0.5273740000000  0.4853550000000  0.5265650000000 1.0
C      1  0.4759660000000  0.4868380000000  0.4825570000000 1.0
C      1  0.5235800000000  0.5112550000000  0.4832670000000 1.0
C      1  0.4888940000000  0.4749640000000  0.4691300000000 1.0
C      1  0.5140000000000  0.4813180000000  0.5239300000000 1.0
C      1  0.4861300000000  0.5201990000000  0.5246920000000 1.0
C      1  0.5193860000000  0.4745650000000  0.4848980000000 1.0
C      1  0.4765180000000  0.5108650000000  0.4834670000000 1.0
C      1  0.5145500000000  0.5203470000000  0.5245130000000 1.0
C      1  0.4810640000000  0.5246970000000  0.4852320000000 1.0
C      1  0.5172190000000  0.5249390000000  0.5107550000000 1.0
C      1  0.4771990000000  0.4714740000000  0.5094680000000 1.0
C      1  0.5234210000000  0.4886310000000  0.4828850000000 1.0
C      1  0.4787200000000  0.4844280000000  0.5147590000000 1.0
C      1  0.5278230000000  0.5158170000000  0.5270120000000 1.0
C      1  0.4869960000000  0.4832420000000  0.5257750000000 1.0
C      1  0.5153400000000  0.4721880000000  0.4714300000000 1.0
C      1  0.4855740000000  0.5271010000000  0.4718770000000 1.0
C      1  0.5283000000000  0.5609090000000  0.5437610000000 1.0
C      1  0.5601050000000  0.5428350000000  0.5265110000000 1.0
C      1  0.5454250000000  0.5279030000000  0.5619440000000 1.0
C      1  0.4728540000000  0.4397150000000  0.5427590000000 1.0
C      1  0.5276760000000  0.4371880000000  0.4544890000000 1.0
C      1  0.4725090000000  0.5627000000000  0.4545390000000 1.0
C      1  0.4385380000000  0.4549910000000  0.5268630000000 1.0
C      1  0.5598960000000  0.4553890000000  0.4726200000000 1.0
C      1  0.4398360000000  0.5438950000000  0.4718810000000 1.0
C      1  0.4552400000000  0.4715320000000  0.5618570000000 1.0
C      1  0.5428300000000  0.4725670000000  0.4400140000000 1.0
C      1  0.4579670000000  0.5270200000000  0.4401790000000 1.0
C      1  0.5277230000000  0.5627650000000  0.4544380000000 1.0
C      1  0.5605070000000  0.5442950000000  0.4717160000000 1.0
C      1  0.5425460000000  0.5274410000000  0.4400270000000 1.0
C      1  0.4727240000000  0.4373580000000  0.4544600000000 1.0
C      1  0.5274770000000  0.4398940000000  0.5440460000000 1.0
C      1  0.4723800000000  0.5606860000000  0.5440000000000 1.0
C      1  0.4384300000000  0.4544270000000  0.4714590000000 1.0
C      1  0.5592960000000  0.4570110000000  0.5269520000000 1.0
C      1  0.4404600000000  0.5423600000000  0.5268870000000 1.0
C      1  0.4574200000000  0.4719950000000  0.4397640000000 1.0
C      1  0.5448370000000  0.4724960000000  0.5618710000000 1.0
C      1  0.4556220000000  0.5270940000000  0.5622190000000 1.0
C      1  0.5435660000000  0.5685670000000  0.4689990000000 1.0
C      1  0.5691030000000  0.4693620000000  0.5430360000000 1.0
C      1  0.4699280000000  0.5430080000000  0.5683250000000 1.0
C      1  0.4573730000000  0.4309260000000  0.4692320000000 1.0
C      1  0.5434470000000  0.4326190000000  0.5302010000000 1.0
C      1  0.4562730000000  0.5670600000000  0.5299810000000 1.0
C      1  0.4313220000000  0.5299680000000  0.5431330000000 1.0
C      1  0.5664770000000  0.5296850000000  0.4558160000000 1.0
C      1  0.4335930000000  0.4694530000000  0.4557920000000 1.0
C      1  0.5304660000000  0.4566210000000  0.5679010000000 1.0
C      1  0.4693060000000  0.4557260000000  0.4298960000000 1.0
C      1  0.5306830000000  0.5438190000000  0.4301000000000 1.0
C      1  0.5442770000000  0.5674920000000  0.5296350000000 1.0
C      1  0.5669100000000  0.4692670000000  0.4566240000000 1.0
C      1  0.4695210000000  0.5435870000000  0.4302020000000 1.0
C      1  0.4567840000000  0.4304820000000  0.5302380000000 1.0
C      1  0.5430320000000  0.4314730000000  0.4696360000000 1.0
C      1  0.4567540000000  0.5681520000000  0.4693200000000 1.0
C      1  0.4340510000000  0.5295500000000  0.4557610000000 1.0
C      1  0.5694860000000  0.5304090000000  0.5426660000000 1.0
C      1  0.4318280000000  0.4692180000000  0.5425880000000 1.0
C      1  0.5306790000000  0.4564360000000  0.4303780000000 1.0
C      1  0.4701120000000  0.4556710000000  0.5668510000000 1.0
C      1  0.5310880000000  0.5438180000000  0.5682590000000 1.0
C      1  0.5620130000000  0.5171180000000  0.4501780000000 1.0
C      1  0.5182700000000  0.4501670000000  0.5642730000000 1.0
C      1  0.4502070000000  0.5633150000000  0.5174600000000 1.0
C      1  0.4379380000000  0.4818920000000  0.4500740000000 1.0
C      1  0.5667700000000  0.4815140000000  0.5502910000000 1.0
C      1  0.4336130000000  0.5179700000000  0.5506580000000 1.0
C      1  0.4820400000000  0.5500270000000  0.5653720000000 1.0
C      1  0.5185730000000  0.5512930000000  0.4323450000000 1.0
C      1  0.4815410000000  0.4484250000000  0.4320260000000 1.0
C      1  0.5490950000000  0.4366310000000  0.5175530000000 1.0
C      1  0.4500440000000  0.4332440000000  0.4811600000000 1.0
C      1  0.5501990000000  0.5651780000000  0.4811760000000 1.0
C      1  0.5671890000000  0.5184200000000  0.5501850000000 1.0
C      1  0.5186920000000  0.4487180000000  0.4322050000000 1.0
C      1  0.4501500000000  0.5647190000000  0.4814970000000 1.0
C      1  0.4341000000000  0.4810970000000  0.5501070000000 1.0
C      1  0.5631290000000  0.4815740000000  0.4504500000000 1.0
C      1  0.4384900000000  0.5169630000000  0.4500860000000 1.0
C      1  0.4815700000000  0.5511840000000  0.4323990000000 1.0
C      1  0.5187600000000  0.5504360000000  0.5651930000000 1.0
C      1  0.4826820000000  0.4499040000000  0.5626750000000 1.0
C      1  0.5494320000000  0.4347050000000  0.4819720000000 1.0
C      1  0.4497080000000  0.4330440000000  0.5180360000000 1.0
C      1  0.5502040000000  0.5636360000000  0.5170660000000 1.0
C      1  0.5145770000000  0.5408440000000  0.4550640000000 1.0
C      1  0.5334990000000  0.4573390000000  0.5153910000000 1.0
C      1  0.4560790000000  0.5149920000000  0.5401540000000 1.0
C      1  0.4850400000000  0.4595390000000  0.4542140000000 1.0
C      1  0.5149130000000  0.4645570000000  0.5423770000000 1.0
C      1  0.4851900000000  0.5371920000000  0.5432240000000 1.0
C      1  0.4652910000000  0.5423580000000  0.5151490000000 1.0
C      1  0.5363510000000  0.5432940000000  0.4845320000000 1.0
C      1  0.4603140000000  0.4571240000000  0.4851020000000 1.0
C      1  0.5440040000000  0.4854760000000  0.5397020000000 1.0
C      1  0.4583770000000  0.4843070000000  0.4657460000000 1.0
C      1  0.5415000000000  0.5148280000000  0.4657110000000 1.0
C      1  0.5157230000000  0.5371470000000  0.5430020000000 1.0
C      1  0.5357000000000  0.4562240000000  0.4853840000000 1.0
C      1  0.4584820000000  0.5144330000000  0.4661140000000 1.0
C      1  0.4842870000000  0.4653240000000  0.5420530000000 1.0
C      1  0.5143610000000  0.4590690000000  0.4545940000000 1.0
C      1  0.4856460000000  0.5409030000000  0.4550880000000 1.0
C      1  0.4636510000000  0.5425880000000  0.4849730000000 1.0
C      1  0.5349370000000  0.5428840000000  0.5149380000000 1.0
C      1  0.4612430000000  0.4554410000000  0.5153010000000 1.0
C      1  0.5416140000000  0.4849710000000  0.4651510000000 1.0
C      1  0.4578810000000  0.4855720000000  0.5401790000000 1.0
C      1  0.5445310000000  0.5146930000000  0.5398500000000 1.0
C      1  0.5388630000000  0.5066890000000  0.4459000000000 1.0
C      1  0.5055680000000  0.4418030000000  0.5462520000000 1.0
C      1  0.4438340000000  0.5422150000000  0.5057240000000 1.0
C      1  0.4603080000000  0.4929240000000  0.4448340000000 1.0
C      1  0.5499500000000  0.4933720000000  0.5629700000000 1.0
C      1  0.4504200000000  0.5061910000000  0.5635470000000 1.0
C      1  0.4935870000000  0.5607650000000  0.5476930000000 1.0
C      1  0.5068920000000  0.5643670000000  0.4491340000000 1.0
C      1  0.4934970000000  0.4361350000000  0.4490160000000 1.0
C      1  0.5545180000000  0.4587970000000  0.5061970000000 1.0
C      1  0.4365950000000  0.4489010000000  0.4924850000000 1.0
C      1  0.5599080000000  0.5475020000000  0.4934300000000 1.0
C      1  0.5503480000000  0.5069300000000  0.5631950000000 1.0
C      1  0.5070200000000  0.4354090000000  0.4483780000000 1.0
C      1  0.4400240000000  0.5471940000000  0.4935190000000 1.0
C      1  0.4499300000000  0.4925890000000  0.5639000000000 1.0
C      1  0.5447270000000  0.4944920000000  0.4428580000000 1.0
C      1  0.4625970000000  0.5065040000000  0.4460980000000 1.0
C      1  0.4933020000000  0.5643670000000  0.4491540000000 1.0
C      1  0.5071080000000  0.5606990000000  0.5475010000000 1.0
C      1  0.4935900000000  0.4452080000000  0.5399050000000 1.0
C      1  0.5586560000000  0.4525170000000  0.4944790000000 1.0
C      1  0.4379560000000  0.4503120000000  0.5059280000000 1.0
C      1  0.5560170000000  0.5419660000000  0.5054810000000 1.0
C      1  0.4268030000000  0.5118950000000  0.5299400000000 1.0
C      1  0.5126740000000  0.5306290000000  0.4253060000000 1.0
C      1  0.5298400000000  0.4254450000000  0.5132460000000 1.0
C      1  0.5735950000000  0.4872770000000  0.5294830000000 1.0
C      1  0.4263270000000  0.4867750000000  0.4688960000000 1.0
C      1  0.5733700000000  0.5124710000000  0.4693440000000 1.0
C      1  0.4871660000000  0.4688280000000  0.4243510000000 1.0
C      1  0.5126010000000  0.4694210000000  0.5742620000000 1.0
C      1  0.4877440000000  0.5307020000000  0.5753680000000 1.0
C      1  0.4692950000000  0.5744120000000  0.5126420000000 1.0
C      1  0.5308830000000  0.5752170000000  0.4868530000000 1.0
C      1  0.4705550000000  0.4260090000000  0.4872430000000 1.0
C      1  0.4266640000000  0.5123480000000  0.4689000000000 1.0
C      1  0.5134740000000  0.5311040000000  0.5752210000000 1.0
C      1  0.5298680000000  0.4248040000000  0.4873380000000 1.0
C      1  0.5733810000000  0.4868450000000  0.4697470000000 1.0
C      1  0.4266350000000  0.4871700000000  0.5296520000000 1.0
C      1  0.5738250000000  0.5122190000000  0.5293900000000 1.0
C      1  0.4872600000000  0.4689720000000  0.5741070000000 1.0
C      1  0.5127310000000  0.4693170000000  0.4249100000000 1.0
C      1  0.4875810000000  0.5306200000000  0.4252540000000 1.0
C      1  0.4694130000000  0.5748310000000  0.4871160000000 1.0
C      1  0.5310450000000  0.5747960000000  0.5124340000000 1.0
C      1  0.4703680000000  0.4259710000000  0.5123010000000 1.0
C      1  0.5467500000000  0.4520260000000  0.4522600000000 1.0
C      1  0.4522970000000  0.4518690000000  0.5469660000000 1.0
C      1  0.4526660000000  0.5465580000000  0.5475100000000 1.0
C      1  0.5469230000000  0.5479150000000  0.4517770000000 1.0
C      1  0.4534720000000  0.5476560000000  0.4518980000000 1.0
C      1  0.5481900000000  0.5471290000000  0.5471700000000 1.0
C      1  0.4530880000000  0.4514840000000  0.4518190000000 1.0
C      1  0.5476670000000  0.4529650000000  0.5475190000000 1.0
END
