TITL C-1887015-2101-68 -1.77490784645999e-06 1000000 -4285.06925634566 0 0 600 (Th) n - 1
REM
REM in /nfs/bkarasulu/CARBON/AIRSS/Generating-Clusters/GAP-ML-2020/Higher-Symm/Selected-Sizes/TryA-Only_Ih-Symm/Larger-Clusters
REM
REM
REM
REM
REM
REM ./C.cell (2cf5181f0f1d4d5b12b972d32ad12063)
REM
REM compiler GCC version 9.2.1 20190827 (Red Hat 9.2.1-1)
REM options -cpp -mtune=generic -march=x86-64 -g -O0 -fpre-include=/usr/include/finclude/math-vector-fortran.h
REM seed 108007045 2067151373 1408015508 1532766973 -69143490 266137796 1385771762 1951787165 1932176966 -354253496 1619406673 44716061 1724585145 1552926036 2139334408 -1480979702 932893912 -670995709 1874443014 -787014479 -111016498 -883220963 1782684616 15779880 1610208579 -2098218155 -1172632390 1271130021 968059759 946337782 353246491 -21449905 -1288658042
REM
CELL 1.54180  100.00000  100.00000  100.00000   90.00000   90.00000   90.00000
LATT -1
SFAC C  
C      1  0.4548790000000  0.5540200000000  0.5287010000000 1.0
C      1  0.5287010000000  0.4548790000000  0.5540200000000 1.0
C      1  0.5540200000000  0.5287010000000  0.4548790000000 1.0
C      1  0.4548790000000  0.4459800000000  0.4712990000000 1.0
C      1  0.5451210000000  0.4459800000000  0.5287010000000 1.0
C      1  0.5451210000000  0.5540200000000  0.4712990000000 1.0
C      1  0.5287010000000  0.5451210000000  0.4459800000000 1.0
C      1  0.4712990000000  0.5451210000000  0.5540200000000 1.0
C      1  0.4712990000000  0.4548790000000  0.4459800000000 1.0
C      1  0.5540200000000  0.4712990000000  0.5451210000000 1.0
C      1  0.4459800000000  0.4712990000000  0.4548790000000 1.0
C      1  0.4459800000000  0.5287010000000  0.5451210000000 1.0
C      1  0.5451210000000  0.5540200000000  0.5287010000000 1.0
C      1  0.4712990000000  0.4548790000000  0.5540200000000 1.0
C      1  0.4459800000000  0.5287010000000  0.4548790000000 1.0
C      1  0.5451210000000  0.4459800000000  0.4712990000000 1.0
C      1  0.4548790000000  0.4459800000000  0.5287010000000 1.0
C      1  0.4548790000000  0.5540200000000  0.4712990000000 1.0
C      1  0.4712990000000  0.5451210000000  0.4459800000000 1.0
C      1  0.5287010000000  0.5451210000000  0.5540200000000 1.0
C      1  0.5287010000000  0.4548790000000  0.4459800000000 1.0
C      1  0.4459800000000  0.4712990000000  0.5451210000000 1.0
C      1  0.5540200000000  0.4712990000000  0.4548790000000 1.0
C      1  0.5540200000000  0.5287010000000  0.5451210000000 1.0
C      1  0.5145170000000  0.5653580000000  0.4475140000000 1.0
C      1  0.4475140000000  0.5145170000000  0.5653580000000 1.0
C      1  0.5653580000000  0.4475140000000  0.5145170000000 1.0
C      1  0.5145170000000  0.4346420000000  0.5524860000000 1.0
C      1  0.4854830000000  0.4346420000000  0.4475140000000 1.0
C      1  0.4854830000000  0.5653580000000  0.5524860000000 1.0
C      1  0.4475140000000  0.4854830000000  0.4346420000000 1.0
C      1  0.5524860000000  0.4854830000000  0.5653580000000 1.0
C      1  0.5524860000000  0.5145170000000  0.4346420000000 1.0
C      1  0.5653580000000  0.5524860000000  0.4854830000000 1.0
C      1  0.4346420000000  0.5524860000000  0.5145170000000 1.0
C      1  0.4346420000000  0.4475140000000  0.4854830000000 1.0
C      1  0.4854830000000  0.5653580000000  0.4475140000000 1.0
C      1  0.5524860000000  0.5145170000000  0.5653580000000 1.0
C      1  0.4346420000000  0.4475140000000  0.5145170000000 1.0
C      1  0.4854830000000  0.4346420000000  0.5524860000000 1.0
C      1  0.5145170000000  0.4346420000000  0.4475140000000 1.0
C      1  0.5145170000000  0.5653580000000  0.5524860000000 1.0
C      1  0.5524860000000  0.4854830000000  0.4346420000000 1.0
C      1  0.4475140000000  0.4854830000000  0.5653580000000 1.0
C      1  0.4475140000000  0.5145170000000  0.4346420000000 1.0
C      1  0.4346420000000  0.5524860000000  0.4854830000000 1.0
C      1  0.5653580000000  0.5524860000000  0.5145170000000 1.0
C      1  0.5653580000000  0.4475140000000  0.4854830000000 1.0
C      1  0.4853610000000  0.4419780000000  0.4733130000000 1.0
C      1  0.4733130000000  0.4853610000000  0.4419780000000 1.0
C      1  0.4419780000000  0.4733130000000  0.4853610000000 1.0
C      1  0.4853610000000  0.5580220000000  0.5266870000000 1.0
C      1  0.5146390000000  0.5580220000000  0.4733130000000 1.0
C      1  0.5146390000000  0.4419780000000  0.5266870000000 1.0
C      1  0.4733130000000  0.5146390000000  0.5580220000000 1.0
C      1  0.5266870000000  0.5146390000000  0.4419780000000 1.0
C      1  0.5266870000000  0.4853610000000  0.5580220000000 1.0
C      1  0.4419780000000  0.5266870000000  0.5146390000000 1.0
C      1  0.5580220000000  0.5266870000000  0.4853610000000 1.0
C      1  0.5580220000000  0.4733130000000  0.5146390000000 1.0
C      1  0.5146390000000  0.4419780000000  0.4733130000000 1.0
C      1  0.5266870000000  0.4853610000000  0.4419780000000 1.0
C      1  0.5580220000000  0.4733130000000  0.4853610000000 1.0
C      1  0.5146390000000  0.5580220000000  0.5266870000000 1.0
C      1  0.4853610000000  0.5580220000000  0.4733130000000 1.0
C      1  0.4853610000000  0.4419780000000  0.5266870000000 1.0
C      1  0.5266870000000  0.5146390000000  0.5580220000000 1.0
C      1  0.4733130000000  0.5146390000000  0.4419780000000 1.0
C      1  0.4733130000000  0.4853610000000  0.5580220000000 1.0
C      1  0.5580220000000  0.5266870000000  0.5146390000000 1.0
C      1  0.4419780000000  0.5266870000000  0.4853610000000 1.0
C      1  0.4419780000000  0.4733130000000  0.5146390000000 1.0
C      1  0.5150910000000  0.5735810000000  0.4695530000000 1.0
C      1  0.4695530000000  0.5150910000000  0.5735810000000 1.0
C      1  0.5735810000000  0.4695530000000  0.5150910000000 1.0
C      1  0.5150910000000  0.4264190000000  0.5304470000000 1.0
C      1  0.4849090000000  0.4264190000000  0.4695530000000 1.0
C      1  0.4849090000000  0.5735810000000  0.5304470000000 1.0
C      1  0.4695530000000  0.4849090000000  0.4264190000000 1.0
C      1  0.5304470000000  0.4849090000000  0.5735810000000 1.0
C      1  0.5304470000000  0.5150910000000  0.4264190000000 1.0
C      1  0.5735810000000  0.5304470000000  0.4849090000000 1.0
C      1  0.4264190000000  0.5304470000000  0.5150910000000 1.0
C      1  0.4264190000000  0.4695530000000  0.4849090000000 1.0
C      1  0.4849090000000  0.5735810000000  0.4695530000000 1.0
C      1  0.5304470000000  0.5150910000000  0.5735810000000 1.0
C      1  0.4264190000000  0.4695530000000  0.5150910000000 1.0
C      1  0.4849090000000  0.4264190000000  0.5304470000000 1.0
C      1  0.5150910000000  0.4264190000000  0.4695530000000 1.0
C      1  0.5150910000000  0.5735810000000  0.5304470000000 1.0
C      1  0.5304470000000  0.4849090000000  0.4264190000000 1.0
C      1  0.4695530000000  0.4849090000000  0.5735810000000 1.0
C      1  0.4695530000000  0.5150910000000  0.4264190000000 1.0
C      1  0.4264190000000  0.5304470000000  0.4849090000000 1.0
C      1  0.5735810000000  0.5304470000000  0.5150910000000 1.0
C      1  0.5735810000000  0.4695530000000  0.4849090000000 1.0
C      1  0.4504750000000  0.4400080000000  0.4494980000000 1.0
C      1  0.4494980000000  0.4504750000000  0.4400080000000 1.0
C      1  0.4400080000000  0.4494980000000  0.4504750000000 1.0
C      1  0.4504750000000  0.5599920000000  0.5505020000000 1.0
C      1  0.5495250000000  0.5599920000000  0.4494980000000 1.0
C      1  0.5495250000000  0.4400080000000  0.5505020000000 1.0
C      1  0.4494980000000  0.5495250000000  0.5599920000000 1.0
C      1  0.5505020000000  0.5495250000000  0.4400080000000 1.0
C      1  0.5505020000000  0.4504750000000  0.5599920000000 1.0
C      1  0.4400080000000  0.5505020000000  0.5495250000000 1.0
C      1  0.5599920000000  0.5505020000000  0.4504750000000 1.0
C      1  0.5599920000000  0.4494980000000  0.5495250000000 1.0
C      1  0.5495250000000  0.4400080000000  0.4494980000000 1.0
C      1  0.5505020000000  0.4504750000000  0.4400080000000 1.0
C      1  0.5599920000000  0.4494980000000  0.4504750000000 1.0
C      1  0.5495250000000  0.5599920000000  0.5505020000000 1.0
C      1  0.4504750000000  0.5599920000000  0.4494980000000 1.0
C      1  0.4504750000000  0.4400080000000  0.5505020000000 1.0
C      1  0.5505020000000  0.5495250000000  0.5599920000000 1.0
C      1  0.4494980000000  0.5495250000000  0.4400080000000 1.0
C      1  0.4494980000000  0.4504750000000  0.5599920000000 1.0
C      1  0.5599920000000  0.5505020000000  0.5495250000000 1.0
C      1  0.4400080000000  0.5505020000000  0.4504750000000 1.0
C      1  0.4400080000000  0.4494980000000  0.5495250000000 1.0
C      1  0.5339750000000  0.4929730000000  0.5487390000000 1.0
C      1  0.5487390000000  0.5339750000000  0.4929730000000 1.0
C      1  0.4929730000000  0.5487390000000  0.5339750000000 1.0
C      1  0.5339750000000  0.5070270000000  0.4512610000000 1.0
C      1  0.4660250000000  0.5070270000000  0.5487390000000 1.0
C      1  0.4660250000000  0.4929730000000  0.4512610000000 1.0
C      1  0.5487390000000  0.4660250000000  0.5070270000000 1.0
C      1  0.4512610000000  0.4660250000000  0.4929730000000 1.0
C      1  0.4512610000000  0.5339750000000  0.5070270000000 1.0
C      1  0.4929730000000  0.4512610000000  0.4660250000000 1.0
C      1  0.5070270000000  0.4512610000000  0.5339750000000 1.0
C      1  0.5070270000000  0.5487390000000  0.4660250000000 1.0
C      1  0.4660250000000  0.4929730000000  0.5487390000000 1.0
C      1  0.4512610000000  0.5339750000000  0.4929730000000 1.0
C      1  0.5070270000000  0.5487390000000  0.5339750000000 1.0
C      1  0.4660250000000  0.5070270000000  0.4512610000000 1.0
C      1  0.5339750000000  0.5070270000000  0.5487390000000 1.0
C      1  0.5339750000000  0.4929730000000  0.4512610000000 1.0
C      1  0.4512610000000  0.4660250000000  0.5070270000000 1.0
C      1  0.5487390000000  0.4660250000000  0.4929730000000 1.0
C      1  0.5487390000000  0.5339750000000  0.5070270000000 1.0
C      1  0.5070270000000  0.4512610000000  0.4660250000000 1.0
C      1  0.4929730000000  0.4512610000000  0.5339750000000 1.0
C      1  0.4929730000000  0.5487390000000  0.4660250000000 1.0
C      1  0.4358720000000  0.5403900000000  0.4618510000000 1.0
C      1  0.4618510000000  0.4358720000000  0.5403900000000 1.0
C      1  0.5403900000000  0.4618510000000  0.4358720000000 1.0
C      1  0.4358720000000  0.4596100000000  0.5381490000000 1.0
C      1  0.5641280000000  0.4596100000000  0.4618510000000 1.0
C      1  0.5641280000000  0.5403900000000  0.5381490000000 1.0
C      1  0.4618510000000  0.5641280000000  0.4596100000000 1.0
C      1  0.5381490000000  0.5641280000000  0.5403900000000 1.0
C      1  0.5381490000000  0.4358720000000  0.4596100000000 1.0
C      1  0.5403900000000  0.5381490000000  0.5641280000000 1.0
C      1  0.4596100000000  0.5381490000000  0.4358720000000 1.0
C      1  0.4596100000000  0.4618510000000  0.5641280000000 1.0
C      1  0.5641280000000  0.5403900000000  0.4618510000000 1.0
C      1  0.5381490000000  0.4358720000000  0.5403900000000 1.0
C      1  0.4596100000000  0.4618510000000  0.4358720000000 1.0
C      1  0.5641280000000  0.4596100000000  0.5381490000000 1.0
C      1  0.4358720000000  0.4596100000000  0.4618510000000 1.0
C      1  0.4358720000000  0.5403900000000  0.5381490000000 1.0
C      1  0.5381490000000  0.5641280000000  0.4596100000000 1.0
C      1  0.4618510000000  0.5641280000000  0.5403900000000 1.0
C      1  0.4618510000000  0.4358720000000  0.4596100000000 1.0
C      1  0.4596100000000  0.5381490000000  0.5641280000000 1.0
C      1  0.5403900000000  0.5381490000000  0.4358720000000 1.0
C      1  0.5403900000000  0.4618510000000  0.5641280000000 1.0
C      1  0.5148650000000  0.4569560000000  0.4390230000000 1.0
C      1  0.4390230000000  0.5148650000000  0.4569560000000 1.0
C      1  0.4569560000000  0.4390230000000  0.5148650000000 1.0
C      1  0.5148650000000  0.5430440000000  0.5609770000000 1.0
C      1  0.4851350000000  0.5430440000000  0.4390230000000 1.0
C      1  0.4851350000000  0.4569560000000  0.5609770000000 1.0
C      1  0.4390230000000  0.4851350000000  0.5430440000000 1.0
C      1  0.5609770000000  0.4851350000000  0.4569560000000 1.0
C      1  0.5609770000000  0.5148650000000  0.5430440000000 1.0
C      1  0.4569560000000  0.5609770000000  0.4851350000000 1.0
C      1  0.5430440000000  0.5609770000000  0.5148650000000 1.0
C      1  0.5430440000000  0.4390230000000  0.4851350000000 1.0
C      1  0.4851350000000  0.4569560000000  0.4390230000000 1.0
C      1  0.5609770000000  0.5148650000000  0.4569560000000 1.0
C      1  0.5430440000000  0.4390230000000  0.5148650000000 1.0
C      1  0.4851350000000  0.5430440000000  0.5609770000000 1.0
C      1  0.5148650000000  0.5430440000000  0.4390230000000 1.0
C      1  0.5148650000000  0.4569560000000  0.5609770000000 1.0
C      1  0.5609770000000  0.4851350000000  0.5430440000000 1.0
C      1  0.4390230000000  0.4851350000000  0.4569560000000 1.0
C      1  0.4390230000000  0.5148650000000  0.5430440000000 1.0
C      1  0.5430440000000  0.5609770000000  0.4851350000000 1.0
C      1  0.4569560000000  0.5609770000000  0.5148650000000 1.0
C      1  0.4569560000000  0.4390230000000  0.4851350000000 1.0
C      1  0.4722300000000  0.4916160000000  0.5271000000000 1.0
C      1  0.5271000000000  0.4722300000000  0.4916160000000 1.0
C      1  0.4916160000000  0.5271000000000  0.4722300000000 1.0
C      1  0.4722300000000  0.5083840000000  0.4729000000000 1.0
C      1  0.5277700000000  0.5083840000000  0.5271000000000 1.0
C      1  0.5277700000000  0.4916160000000  0.4729000000000 1.0
C      1  0.5271000000000  0.5277700000000  0.5083840000000 1.0
C      1  0.4729000000000  0.5277700000000  0.4916160000000 1.0
C      1  0.4729000000000  0.4722300000000  0.5083840000000 1.0
C      1  0.4916160000000  0.4729000000000  0.5277700000000 1.0
C      1  0.5083840000000  0.4729000000000  0.4722300000000 1.0
C      1  0.5083840000000  0.5271000000000  0.5277700000000 1.0
C      1  0.5277700000000  0.4916160000000  0.5271000000000 1.0
C      1  0.4729000000000  0.4722300000000  0.4916160000000 1.0
C      1  0.5083840000000  0.5271000000000  0.4722300000000 1.0
C      1  0.5277700000000  0.5083840000000  0.4729000000000 1.0
C      1  0.4722300000000  0.5083840000000  0.5271000000000 1.0
C      1  0.4722300000000  0.4916160000000  0.4729000000000 1.0
C      1  0.4729000000000  0.5277700000000  0.5083840000000 1.0
C      1  0.5271000000000  0.5277700000000  0.4916160000000 1.0
C      1  0.5271000000000  0.4722300000000  0.5083840000000 1.0
C      1  0.5083840000000  0.4729000000000  0.5277700000000 1.0
C      1  0.4916160000000  0.4729000000000  0.4722300000000 1.0
C      1  0.4916160000000  0.5271000000000  0.5277700000000 1.0
C      1  0.4926510000000  0.4928340000000  0.4084810000000 1.0
C      1  0.4084810000000  0.4926510000000  0.4928340000000 1.0
C      1  0.4928340000000  0.4084810000000  0.4926510000000 1.0
C      1  0.4926510000000  0.5071660000000  0.5915190000000 1.0
C      1  0.5073490000000  0.5071660000000  0.4084810000000 1.0
C      1  0.5073490000000  0.4928340000000  0.5915190000000 1.0
C      1  0.4084810000000  0.5073490000000  0.5071660000000 1.0
C      1  0.5915190000000  0.5073490000000  0.4928340000000 1.0
C      1  0.5915190000000  0.4926510000000  0.5071660000000 1.0
C      1  0.4928340000000  0.5915190000000  0.5073490000000 1.0
C      1  0.5071660000000  0.5915190000000  0.4926510000000 1.0
C      1  0.5071660000000  0.4084810000000  0.5073490000000 1.0
C      1  0.5073490000000  0.4928340000000  0.4084810000000 1.0
C      1  0.5915190000000  0.4926510000000  0.4928340000000 1.0
C      1  0.5071660000000  0.4084810000000  0.4926510000000 1.0
C      1  0.5073490000000  0.5071660000000  0.5915190000000 1.0
C      1  0.4926510000000  0.5071660000000  0.4084810000000 1.0
C      1  0.4926510000000  0.4928340000000  0.5915190000000 1.0
C      1  0.5915190000000  0.5073490000000  0.5071660000000 1.0
C      1  0.4084810000000  0.5073490000000  0.4928340000000 1.0
C      1  0.4084810000000  0.4926510000000  0.5071660000000 1.0
C      1  0.5071660000000  0.5915190000000  0.5073490000000 1.0
C      1  0.4928340000000  0.5915190000000  0.4926510000000 1.0
C      1  0.4928340000000  0.4084810000000  0.5073490000000 1.0
C      1  0.4567590000000  0.4927910000000  0.5739510000000 1.0
C      1  0.5739510000000  0.4567590000000  0.4927910000000 1.0
C      1  0.4927910000000  0.5739510000000  0.4567590000000 1.0
C      1  0.4567590000000  0.5072090000000  0.4260490000000 1.0
C      1  0.5432410000000  0.5072090000000  0.5739510000000 1.0
C      1  0.5432410000000  0.4927910000000  0.4260490000000 1.0
C      1  0.5739510000000  0.5432410000000  0.5072090000000 1.0
C      1  0.4260490000000  0.5432410000000  0.4927910000000 1.0
C      1  0.4260490000000  0.4567590000000  0.5072090000000 1.0
C      1  0.4927910000000  0.4260490000000  0.5432410000000 1.0
C      1  0.5072090000000  0.4260490000000  0.4567590000000 1.0
C      1  0.5072090000000  0.5739510000000  0.5432410000000 1.0
C      1  0.5432410000000  0.4927910000000  0.5739510000000 1.0
C      1  0.4260490000000  0.4567590000000  0.4927910000000 1.0
C      1  0.5072090000000  0.5739510000000  0.4567590000000 1.0
C      1  0.5432410000000  0.5072090000000  0.4260490000000 1.0
C      1  0.4567590000000  0.5072090000000  0.5739510000000 1.0
C      1  0.4567590000000  0.4927910000000  0.4260490000000 1.0
C      1  0.4260490000000  0.5432410000000  0.5072090000000 1.0
C      1  0.5739510000000  0.5432410000000  0.4927910000000 1.0
C      1  0.5739510000000  0.4567590000000  0.5072090000000 1.0
C      1  0.5072090000000  0.4260490000000  0.5432410000000 1.0
C      1  0.4927910000000  0.4260490000000  0.4567590000000 1.0
C      1  0.4927910000000  0.5739510000000  0.5432410000000 1.0
C      1  0.5291130000000  0.4226760000000  0.4930450000000 1.0
C      1  0.4930450000000  0.5291130000000  0.4226760000000 1.0
C      1  0.4226760000000  0.4930450000000  0.5291130000000 1.0
C      1  0.5291130000000  0.5773240000000  0.5069550000000 1.0
C      1  0.4708870000000  0.5773240000000  0.4930450000000 1.0
C      1  0.4708870000000  0.4226760000000  0.5069550000000 1.0
C      1  0.4930450000000  0.4708870000000  0.5773240000000 1.0
C      1  0.5069550000000  0.4708870000000  0.4226760000000 1.0
C      1  0.5069550000000  0.5291130000000  0.5773240000000 1.0
C      1  0.4226760000000  0.5069550000000  0.4708870000000 1.0
C      1  0.5773240000000  0.5069550000000  0.5291130000000 1.0
C      1  0.5773240000000  0.4930450000000  0.4708870000000 1.0
C      1  0.4708870000000  0.4226760000000  0.4930450000000 1.0
C      1  0.5069550000000  0.5291130000000  0.4226760000000 1.0
C      1  0.5773240000000  0.4930450000000  0.5291130000000 1.0
C      1  0.4708870000000  0.5773240000000  0.5069550000000 1.0
C      1  0.5291130000000  0.5773240000000  0.4930450000000 1.0
C      1  0.5291130000000  0.4226760000000  0.5069550000000 1.0
C      1  0.5069550000000  0.4708870000000  0.5773240000000 1.0
C      1  0.4930450000000  0.4708870000000  0.4226760000000 1.0
C      1  0.4930450000000  0.5291130000000  0.5773240000000 1.0
C      1  0.5773240000000  0.5069550000000  0.4708870000000 1.0
C      1  0.4226760000000  0.5069550000000  0.5291130000000 1.0
C      1  0.4226760000000  0.4930450000000  0.4708870000000 1.0
C      1  0.5380540000000  0.4865940000000  0.5361540000000 1.0
C      1  0.5361540000000  0.5380540000000  0.4865940000000 1.0
C      1  0.4865940000000  0.5361540000000  0.5380540000000 1.0
C      1  0.5380540000000  0.5134060000000  0.4638460000000 1.0
C      1  0.4619460000000  0.5134060000000  0.5361540000000 1.0
C      1  0.4619460000000  0.4865940000000  0.4638460000000 1.0
C      1  0.5361540000000  0.4619460000000  0.5134060000000 1.0
C      1  0.4638460000000  0.4619460000000  0.4865940000000 1.0
C      1  0.4638460000000  0.5380540000000  0.5134060000000 1.0
C      1  0.4865940000000  0.4638460000000  0.4619460000000 1.0
C      1  0.5134060000000  0.4638460000000  0.5380540000000 1.0
C      1  0.5134060000000  0.5361540000000  0.4619460000000 1.0
C      1  0.4619460000000  0.4865940000000  0.5361540000000 1.0
C      1  0.4638460000000  0.5380540000000  0.4865940000000 1.0
C      1  0.5134060000000  0.5361540000000  0.5380540000000 1.0
C      1  0.4619460000000  0.5134060000000  0.4638460000000 1.0
C      1  0.5380540000000  0.5134060000000  0.5361540000000 1.0
C      1  0.5380540000000  0.4865940000000  0.4638460000000 1.0
C      1  0.4638460000000  0.4619460000000  0.5134060000000 1.0
C      1  0.5361540000000  0.4619460000000  0.4865940000000 1.0
C      1  0.5361540000000  0.5380540000000  0.5134060000000 1.0
C      1  0.5134060000000  0.4638460000000  0.4619460000000 1.0
C      1  0.4865940000000  0.4638460000000  0.5380540000000 1.0
C      1  0.4865940000000  0.5361540000000  0.4619460000000 1.0
C      1  0.5077180000000  0.5078910000000  0.5439800000000 1.0
C      1  0.5439800000000  0.5077180000000  0.5078910000000 1.0
C      1  0.5078910000000  0.5439800000000  0.5077180000000 1.0
C      1  0.5077180000000  0.4921090000000  0.4560200000000 1.0
C      1  0.4922820000000  0.4921090000000  0.5439800000000 1.0
C      1  0.4922820000000  0.5078910000000  0.4560200000000 1.0
C      1  0.5439800000000  0.4922820000000  0.4921090000000 1.0
C      1  0.4560200000000  0.4922820000000  0.5078910000000 1.0
C      1  0.4560200000000  0.5077180000000  0.4921090000000 1.0
C      1  0.5078910000000  0.4560200000000  0.4922820000000 1.0
C      1  0.4921090000000  0.4560200000000  0.5077180000000 1.0
C      1  0.4921090000000  0.5439800000000  0.4922820000000 1.0
C      1  0.4922820000000  0.5078910000000  0.5439800000000 1.0
C      1  0.4560200000000  0.5077180000000  0.5078910000000 1.0
C      1  0.4921090000000  0.5439800000000  0.5077180000000 1.0
C      1  0.4922820000000  0.4921090000000  0.4560200000000 1.0
C      1  0.5077180000000  0.4921090000000  0.5439800000000 1.0
C      1  0.5077180000000  0.5078910000000  0.4560200000000 1.0
C      1  0.4560200000000  0.4922820000000  0.4921090000000 1.0
C      1  0.5439800000000  0.4922820000000  0.5078910000000 1.0
C      1  0.5439800000000  0.5077180000000  0.4921090000000 1.0
C      1  0.4921090000000  0.4560200000000  0.4922820000000 1.0
C      1  0.5078910000000  0.4560200000000  0.5077180000000 1.0
C      1  0.5078910000000  0.5439800000000  0.4922820000000 1.0
C      1  0.4692050000000  0.4260900000000  0.5310640000000 1.0
C      1  0.5310640000000  0.4692050000000  0.4260900000000 1.0
C      1  0.4260900000000  0.5310640000000  0.4692050000000 1.0
C      1  0.4692050000000  0.5739100000000  0.4689360000000 1.0
C      1  0.5307950000000  0.5739100000000  0.5310640000000 1.0
C      1  0.5307950000000  0.4260900000000  0.4689360000000 1.0
C      1  0.5310640000000  0.5307950000000  0.5739100000000 1.0
C      1  0.4689360000000  0.5307950000000  0.4260900000000 1.0
C      1  0.4689360000000  0.4692050000000  0.5739100000000 1.0
C      1  0.4260900000000  0.4689360000000  0.5307950000000 1.0
C      1  0.5739100000000  0.4689360000000  0.4692050000000 1.0
C      1  0.5739100000000  0.5310640000000  0.5307950000000 1.0
C      1  0.5307950000000  0.4260900000000  0.5310640000000 1.0
C      1  0.4689360000000  0.4692050000000  0.4260900000000 1.0
C      1  0.5739100000000  0.5310640000000  0.4692050000000 1.0
C      1  0.5307950000000  0.5739100000000  0.4689360000000 1.0
C      1  0.4692050000000  0.5739100000000  0.5310640000000 1.0
C      1  0.4692050000000  0.4260900000000  0.4689360000000 1.0
C      1  0.4689360000000  0.5307950000000  0.5739100000000 1.0
C      1  0.5310640000000  0.5307950000000  0.4260900000000 1.0
C      1  0.5310640000000  0.4692050000000  0.5739100000000 1.0
C      1  0.5739100000000  0.4689360000000  0.5307950000000 1.0
C      1  0.4260900000000  0.4689360000000  0.4692050000000 1.0
C      1  0.4260900000000  0.5310640000000  0.5307950000000 1.0
C      1  0.5278230000000  0.4401010000000  0.4499160000000 1.0
C      1  0.4499160000000  0.5278230000000  0.4401010000000 1.0
C      1  0.4401010000000  0.4499160000000  0.5278230000000 1.0
C      1  0.5278230000000  0.5598990000000  0.5500840000000 1.0
C      1  0.4721770000000  0.5598990000000  0.4499160000000 1.0
C      1  0.4721770000000  0.4401010000000  0.5500840000000 1.0
C      1  0.4499160000000  0.4721770000000  0.5598990000000 1.0
C      1  0.5500840000000  0.4721770000000  0.4401010000000 1.0
C      1  0.5500840000000  0.5278230000000  0.5598990000000 1.0
C      1  0.4401010000000  0.5500840000000  0.4721770000000 1.0
C      1  0.5598990000000  0.5500840000000  0.5278230000000 1.0
C      1  0.5598990000000  0.4499160000000  0.4721770000000 1.0
C      1  0.4721770000000  0.4401010000000  0.4499160000000 1.0
C      1  0.5500840000000  0.5278230000000  0.4401010000000 1.0
C      1  0.5598990000000  0.4499160000000  0.5278230000000 1.0
C      1  0.4721770000000  0.5598990000000  0.5500840000000 1.0
C      1  0.5278230000000  0.5598990000000  0.4499160000000 1.0
C      1  0.5278230000000  0.4401010000000  0.5500840000000 1.0
C      1  0.5500840000000  0.4721770000000  0.5598990000000 1.0
C      1  0.4499160000000  0.4721770000000  0.4401010000000 1.0
C      1  0.4499160000000  0.5278230000000  0.5598990000000 1.0
C      1  0.5598990000000  0.5500840000000  0.4721770000000 1.0
C      1  0.4401010000000  0.5500840000000  0.5278230000000 1.0
C      1  0.4401010000000  0.4499160000000  0.4721770000000 1.0
C      1  0.4444840000000  0.5125780000000  0.5170180000000 1.0
C      1  0.5170180000000  0.4444840000000  0.5125780000000 1.0
C      1  0.5125780000000  0.5170180000000  0.4444840000000 1.0
C      1  0.4444840000000  0.4874220000000  0.4829820000000 1.0
C      1  0.5555160000000  0.4874220000000  0.5170180000000 1.0
C      1  0.5555160000000  0.5125780000000  0.4829820000000 1.0
C      1  0.5170180000000  0.5555160000000  0.4874220000000 1.0
C      1  0.4829820000000  0.5555160000000  0.5125780000000 1.0
C      1  0.4829820000000  0.4444840000000  0.4874220000000 1.0
C      1  0.5125780000000  0.4829820000000  0.5555160000000 1.0
C      1  0.4874220000000  0.4829820000000  0.4444840000000 1.0
C      1  0.4874220000000  0.5170180000000  0.5555160000000 1.0
C      1  0.5555160000000  0.5125780000000  0.5170180000000 1.0
C      1  0.4829820000000  0.4444840000000  0.5125780000000 1.0
C      1  0.4874220000000  0.5170180000000  0.4444840000000 1.0
C      1  0.5555160000000  0.4874220000000  0.4829820000000 1.0
C      1  0.4444840000000  0.4874220000000  0.5170180000000 1.0
C      1  0.4444840000000  0.5125780000000  0.4829820000000 1.0
C      1  0.4829820000000  0.5555160000000  0.4874220000000 1.0
C      1  0.5170180000000  0.5555160000000  0.5125780000000 1.0
C      1  0.5170180000000  0.4444840000000  0.4874220000000 1.0
C      1  0.4874220000000  0.4829820000000  0.5555160000000 1.0
C      1  0.5125780000000  0.4829820000000  0.4444840000000 1.0
C      1  0.5125780000000  0.5170180000000  0.5555160000000 1.0
C      1  0.4694750000000  0.4867100000000  0.5129350000000 1.0
C      1  0.5129350000000  0.4694750000000  0.4867100000000 1.0
C      1  0.4867100000000  0.5129350000000  0.4694750000000 1.0
C      1  0.4694750000000  0.5132900000000  0.4870650000000 1.0
C      1  0.5305250000000  0.5132900000000  0.5129350000000 1.0
C      1  0.5305250000000  0.4867100000000  0.4870650000000 1.0
C      1  0.5129350000000  0.5305250000000  0.5132900000000 1.0
C      1  0.4870650000000  0.5305250000000  0.4867100000000 1.0
C      1  0.4870650000000  0.4694750000000  0.5132900000000 1.0
C      1  0.4867100000000  0.4870650000000  0.5305250000000 1.0
C      1  0.5132900000000  0.4870650000000  0.4694750000000 1.0
C      1  0.5132900000000  0.5129350000000  0.5305250000000 1.0
C      1  0.5305250000000  0.4867100000000  0.5129350000000 1.0
C      1  0.4870650000000  0.4694750000000  0.4867100000000 1.0
C      1  0.5132900000000  0.5129350000000  0.4694750000000 1.0
C      1  0.5305250000000  0.5132900000000  0.4870650000000 1.0
C      1  0.4694750000000  0.5132900000000  0.5129350000000 1.0
C      1  0.4694750000000  0.4867100000000  0.4870650000000 1.0
C      1  0.4870650000000  0.5305250000000  0.5132900000000 1.0
C      1  0.5129350000000  0.5305250000000  0.4867100000000 1.0
C      1  0.5129350000000  0.4694750000000  0.5132900000000 1.0
C      1  0.5132900000000  0.4870650000000  0.5305250000000 1.0
C      1  0.4867100000000  0.4870650000000  0.4694750000000 1.0
C      1  0.4867100000000  0.5129350000000  0.5305250000000 1.0
C      1  0.4715070000000  0.5373570000000  0.5405150000000 1.0
C      1  0.5405150000000  0.4715070000000  0.5373570000000 1.0
C      1  0.5373570000000  0.5405150000000  0.4715070000000 1.0
C      1  0.4715070000000  0.4626430000000  0.4594850000000 1.0
C      1  0.5284930000000  0.4626430000000  0.5405150000000 1.0
C      1  0.5284930000000  0.5373570000000  0.4594850000000 1.0
C      1  0.5405150000000  0.5284930000000  0.4626430000000 1.0
C      1  0.4594850000000  0.5284930000000  0.5373570000000 1.0
C      1  0.4594850000000  0.4715070000000  0.4626430000000 1.0
C      1  0.5373570000000  0.4594850000000  0.5284930000000 1.0
C      1  0.4626430000000  0.4594850000000  0.4715070000000 1.0
C      1  0.4626430000000  0.5405150000000  0.5284930000000 1.0
C      1  0.5284930000000  0.5373570000000  0.5405150000000 1.0
C      1  0.4594850000000  0.4715070000000  0.5373570000000 1.0
C      1  0.4626430000000  0.5405150000000  0.4715070000000 1.0
C      1  0.5284930000000  0.4626430000000  0.4594850000000 1.0
C      1  0.4715070000000  0.4626430000000  0.5405150000000 1.0
C      1  0.4715070000000  0.5373570000000  0.4594850000000 1.0
C      1  0.4594850000000  0.5284930000000  0.4626430000000 1.0
C      1  0.5405150000000  0.5284930000000  0.5373570000000 1.0
C      1  0.5405150000000  0.4715070000000  0.4626430000000 1.0
C      1  0.4626430000000  0.4594850000000  0.5284930000000 1.0
C      1  0.5373570000000  0.4594850000000  0.4715070000000 1.0
C      1  0.5373570000000  0.5405150000000  0.5284930000000 1.0
C      1  0.5071130000000  0.5558820000000  0.4398850000000 1.0
C      1  0.4398850000000  0.5071130000000  0.5558820000000 1.0
C      1  0.5558820000000  0.4398850000000  0.5071130000000 1.0
C      1  0.5071130000000  0.4441180000000  0.5601150000000 1.0
C      1  0.4928870000000  0.4441180000000  0.4398850000000 1.0
C      1  0.4928870000000  0.5558820000000  0.5601150000000 1.0
C      1  0.4398850000000  0.4928870000000  0.4441180000000 1.0
C      1  0.5601150000000  0.4928870000000  0.5558820000000 1.0
C      1  0.5601150000000  0.5071130000000  0.4441180000000 1.0
C      1  0.5558820000000  0.5601150000000  0.4928870000000 1.0
C      1  0.4441180000000  0.5601150000000  0.5071130000000 1.0
C      1  0.4441180000000  0.4398850000000  0.4928870000000 1.0
C      1  0.4928870000000  0.5558820000000  0.4398850000000 1.0
C      1  0.5601150000000  0.5071130000000  0.5558820000000 1.0
C      1  0.4441180000000  0.4398850000000  0.5071130000000 1.0
C      1  0.4928870000000  0.4441180000000  0.5601150000000 1.0
C      1  0.5071130000000  0.4441180000000  0.4398850000000 1.0
C      1  0.5071130000000  0.5558820000000  0.5601150000000 1.0
C      1  0.5601150000000  0.4928870000000  0.4441180000000 1.0
C      1  0.4398850000000  0.4928870000000  0.5558820000000 1.0
C      1  0.4398850000000  0.5071130000000  0.4441180000000 1.0
C      1  0.4441180000000  0.5601150000000  0.4928870000000 1.0
C      1  0.5558820000000  0.5601150000000  0.5071130000000 1.0
C      1  0.5558820000000  0.4398850000000  0.4928870000000 1.0
C      1  0.5077570000000  0.4212300000000  0.5167780000000 1.0
C      1  0.5167780000000  0.5077570000000  0.4212300000000 1.0
C      1  0.4212300000000  0.5167780000000  0.5077570000000 1.0
C      1  0.5077570000000  0.5787700000000  0.4832220000000 1.0
C      1  0.4922430000000  0.5787700000000  0.5167780000000 1.0
C      1  0.4922430000000  0.4212300000000  0.4832220000000 1.0
C      1  0.5167780000000  0.4922430000000  0.5787700000000 1.0
C      1  0.4832220000000  0.4922430000000  0.4212300000000 1.0
C      1  0.4832220000000  0.5077570000000  0.5787700000000 1.0
C      1  0.4212300000000  0.4832220000000  0.4922430000000 1.0
C      1  0.5787700000000  0.4832220000000  0.5077570000000 1.0
C      1  0.5787700000000  0.5167780000000  0.4922430000000 1.0
C      1  0.4922430000000  0.4212300000000  0.5167780000000 1.0
C      1  0.4832220000000  0.5077570000000  0.4212300000000 1.0
C      1  0.5787700000000  0.5167780000000  0.5077570000000 1.0
C      1  0.4922430000000  0.5787700000000  0.4832220000000 1.0
C      1  0.5077570000000  0.5787700000000  0.5167780000000 1.0
C      1  0.5077570000000  0.4212300000000  0.4832220000000 1.0
C      1  0.4832220000000  0.4922430000000  0.5787700000000 1.0
C      1  0.5167780000000  0.4922430000000  0.4212300000000 1.0
C      1  0.5167780000000  0.5077570000000  0.5787700000000 1.0
C      1  0.5787700000000  0.4832220000000  0.4922430000000 1.0
C      1  0.4212300000000  0.4832220000000  0.5077570000000 1.0
C      1  0.4212300000000  0.5167780000000  0.4922430000000 1.0
C      1  0.5738380000000  0.5180870000000  0.4635300000000 1.0
C      1  0.4635300000000  0.5738380000000  0.5180870000000 1.0
C      1  0.5180870000000  0.4635300000000  0.5738380000000 1.0
C      1  0.5738380000000  0.4819130000000  0.5364700000000 1.0
C      1  0.4261620000000  0.4819130000000  0.4635300000000 1.0
C      1  0.4261620000000  0.5180870000000  0.5364700000000 1.0
C      1  0.4635300000000  0.4261620000000  0.4819130000000 1.0
C      1  0.5364700000000  0.4261620000000  0.5180870000000 1.0
C      1  0.5364700000000  0.5738380000000  0.4819130000000 1.0
C      1  0.5180870000000  0.5364700000000  0.4261620000000 1.0
C      1  0.4819130000000  0.5364700000000  0.5738380000000 1.0
C      1  0.4819130000000  0.4635300000000  0.4261620000000 1.0
C      1  0.4261620000000  0.5180870000000  0.4635300000000 1.0
C      1  0.5364700000000  0.5738380000000  0.5180870000000 1.0
C      1  0.4819130000000  0.4635300000000  0.5738380000000 1.0
C      1  0.4261620000000  0.4819130000000  0.5364700000000 1.0
C      1  0.5738380000000  0.4819130000000  0.4635300000000 1.0
C      1  0.5738380000000  0.5180870000000  0.5364700000000 1.0
C      1  0.5364700000000  0.4261620000000  0.4819130000000 1.0
C      1  0.4635300000000  0.4261620000000  0.5180870000000 1.0
C      1  0.4635300000000  0.5738380000000  0.4819130000000 1.0
C      1  0.4819130000000  0.5364700000000  0.4261620000000 1.0
C      1  0.5180870000000  0.5364700000000  0.5738380000000 1.0
C      1  0.5180870000000  0.4635300000000  0.4261620000000 1.0
C      1  0.5150000000000  0.5697470000000  0.4925480000000 1.0
C      1  0.4925480000000  0.5150000000000  0.5697470000000 1.0
C      1  0.5697470000000  0.4925480000000  0.5150000000000 1.0
C      1  0.5150000000000  0.4302530000000  0.5074520000000 1.0
C      1  0.4850000000000  0.4302530000000  0.4925480000000 1.0
C      1  0.4850000000000  0.5697470000000  0.5074520000000 1.0
C      1  0.4925480000000  0.4850000000000  0.4302530000000 1.0
C      1  0.5074520000000  0.4850000000000  0.5697470000000 1.0
C      1  0.5074520000000  0.5150000000000  0.4302530000000 1.0
C      1  0.5697470000000  0.5074520000000  0.4850000000000 1.0
C      1  0.4302530000000  0.5074520000000  0.5150000000000 1.0
C      1  0.4302530000000  0.4925480000000  0.4850000000000 1.0
C      1  0.4850000000000  0.5697470000000  0.4925480000000 1.0
C      1  0.5074520000000  0.5150000000000  0.5697470000000 1.0
C      1  0.4302530000000  0.4925480000000  0.5150000000000 1.0
C      1  0.4850000000000  0.4302530000000  0.5074520000000 1.0
C      1  0.5150000000000  0.4302530000000  0.4925480000000 1.0
C      1  0.5150000000000  0.5697470000000  0.5074520000000 1.0
C      1  0.5074520000000  0.4850000000000  0.4302530000000 1.0
C      1  0.4925480000000  0.4850000000000  0.5697470000000 1.0
C      1  0.4925480000000  0.5150000000000  0.4302530000000 1.0
C      1  0.4302530000000  0.5074520000000  0.4850000000000 1.0
C      1  0.5697470000000  0.5074520000000  0.5150000000000 1.0
C      1  0.5697470000000  0.4925480000000  0.4850000000000 1.0
C      1  0.4817620000000  0.5074290000000  0.4925680000000 1.0
C      1  0.4925680000000  0.4817620000000  0.5074290000000 1.0
C      1  0.5074290000000  0.4925680000000  0.4817620000000 1.0
C      1  0.4817620000000  0.4925710000000  0.5074320000000 1.0
C      1  0.5182380000000  0.4925710000000  0.4925680000000 1.0
C      1  0.5182380000000  0.5074290000000  0.5074320000000 1.0
C      1  0.4925680000000  0.5182380000000  0.4925710000000 1.0
C      1  0.5074320000000  0.5182380000000  0.5074290000000 1.0
C      1  0.5074320000000  0.4817620000000  0.4925710000000 1.0
C      1  0.5074290000000  0.5074320000000  0.5182380000000 1.0
C      1  0.4925710000000  0.5074320000000  0.4817620000000 1.0
C      1  0.4925710000000  0.4925680000000  0.5182380000000 1.0
C      1  0.5182380000000  0.5074290000000  0.4925680000000 1.0
C      1  0.5074320000000  0.4817620000000  0.5074290000000 1.0
C      1  0.4925710000000  0.4925680000000  0.4817620000000 1.0
C      1  0.5182380000000  0.4925710000000  0.5074320000000 1.0
C      1  0.4817620000000  0.4925710000000  0.4925680000000 1.0
C      1  0.4817620000000  0.5074290000000  0.5074320000000 1.0
C      1  0.5074320000000  0.5182380000000  0.4925710000000 1.0
C      1  0.4925680000000  0.5182380000000  0.5074290000000 1.0
C      1  0.4925680000000  0.4817620000000  0.4925710000000 1.0
C      1  0.4925710000000  0.5074320000000  0.5182380000000 1.0
C      1  0.5074290000000  0.5074320000000  0.4817620000000 1.0
C      1  0.5074290000000  0.4925680000000  0.5182380000000 1.0
C      1  0.5516520000000  0.5077290000000  0.4682330000000 1.0
C      1  0.4682330000000  0.5516520000000  0.5077290000000 1.0
C      1  0.5077290000000  0.4682330000000  0.5516520000000 1.0
C      1  0.5516520000000  0.4922710000000  0.5317670000000 1.0
C      1  0.4483480000000  0.4922710000000  0.4682330000000 1.0
C      1  0.4483480000000  0.5077290000000  0.5317670000000 1.0
C      1  0.4682330000000  0.4483480000000  0.4922710000000 1.0
C      1  0.5317670000000  0.4483480000000  0.5077290000000 1.0
C      1  0.5317670000000  0.5516520000000  0.4922710000000 1.0
C      1  0.5077290000000  0.5317670000000  0.4483480000000 1.0
C      1  0.4922710000000  0.5317670000000  0.5516520000000 1.0
C      1  0.4922710000000  0.4682330000000  0.4483480000000 1.0
C      1  0.4483480000000  0.5077290000000  0.4682330000000 1.0
C      1  0.5317670000000  0.5516520000000  0.5077290000000 1.0
C      1  0.4922710000000  0.4682330000000  0.5516520000000 1.0
C      1  0.4483480000000  0.4922710000000  0.5317670000000 1.0
C      1  0.5516520000000  0.4922710000000  0.4682330000000 1.0
C      1  0.5516520000000  0.5077290000000  0.5317670000000 1.0
C      1  0.5317670000000  0.4483480000000  0.4922710000000 1.0
C      1  0.4682330000000  0.4483480000000  0.5077290000000 1.0
C      1  0.4682330000000  0.5516520000000  0.4922710000000 1.0
C      1  0.4922710000000  0.5317670000000  0.4483480000000 1.0
C      1  0.5077290000000  0.5317670000000  0.5516520000000 1.0
C      1  0.5077290000000  0.4682330000000  0.4483480000000 1.0
END
