TITL C-1892082-6947-17 -1.15880185800645e-06 1000000 -2009.63633320638 0 0 300 (Td) n - 1
REM
REM in /nfs/bkarasulu/CARBON/AIRSS/Generating-Clusters/GAP-ML-2020/Higher-Symm/Selected-Sizes/TryA-Only_Ih-Symm/Larger-Clusters
REM
REM
REM
REM
REM
REM ./C.cell (2cf5181f0f1d4d5b12b972d32ad12063)
REM
REM compiler GCC version 9.2.1 20190827 (Red Hat 9.2.1-1)
REM options -cpp -mtune=generic -march=x86-64 -g -O0 -fpre-include=/usr/include/finclude/math-vector-fortran.h
REM seed -2017851836 -2036873080 122873006 2001569566 -1258635692 -1151238322 2076648086 1383597589 1960038864 -365694427 186433321 -1872400093 -1753249054 503639825 -1469612928 1987545337 -1536260479 -1589791092 399542327 -994964778 704535084 -712053392 -1213259564 2113913554 1482096592 -1406900798 -678781573 1304778452 -1645036558 851573423 1843351870 1083877742 253001998
REM
CELL 1.54180  100.00000  100.00000  100.00000   90.00000   90.00000   90.00000
LATT -1
SFAC C  
C      1  0.5127710000000  0.5677390000000  0.4685100000000 1.0
C      1  0.4685100000000  0.5127710000000  0.5677390000000 1.0
C      1  0.5677390000000  0.4685100000000  0.5127710000000 1.0
C      1  0.4872290000000  0.5677390000000  0.5314900000000 1.0
C      1  0.5127710000000  0.4322610000000  0.5314900000000 1.0
C      1  0.4872290000000  0.4322610000000  0.4685100000000 1.0
C      1  0.5314900000000  0.5127710000000  0.4322610000000 1.0
C      1  0.4685100000000  0.4872290000000  0.4322610000000 1.0
C      1  0.5314900000000  0.4872290000000  0.5677390000000 1.0
C      1  0.4322610000000  0.4685100000000  0.4872290000000 1.0
C      1  0.5677390000000  0.5314900000000  0.4872290000000 1.0
C      1  0.4322610000000  0.5314900000000  0.5127710000000 1.0
C      1  0.4685100000000  0.5677390000000  0.5127710000000 1.0
C      1  0.5677390000000  0.5127710000000  0.4685100000000 1.0
C      1  0.5127710000000  0.4685100000000  0.5677390000000 1.0
C      1  0.5314900000000  0.5677390000000  0.4872290000000 1.0
C      1  0.5314900000000  0.4322610000000  0.5127710000000 1.0
C      1  0.4685100000000  0.4322610000000  0.4872290000000 1.0
C      1  0.4322610000000  0.5127710000000  0.5314900000000 1.0
C      1  0.4322610000000  0.4872290000000  0.4685100000000 1.0
C      1  0.5677390000000  0.4872290000000  0.5314900000000 1.0
C      1  0.4872290000000  0.4685100000000  0.4322610000000 1.0
C      1  0.4872290000000  0.5314900000000  0.5677390000000 1.0
C      1  0.5127710000000  0.5314900000000  0.4322610000000 1.0
C      1  0.4627130000000  0.5576920000000  0.4952390000000 1.0
C      1  0.4952390000000  0.4627130000000  0.5576920000000 1.0
C      1  0.5576920000000  0.4952390000000  0.4627130000000 1.0
C      1  0.5372870000000  0.5576920000000  0.5047610000000 1.0
C      1  0.4627130000000  0.4423080000000  0.5047610000000 1.0
C      1  0.5372870000000  0.4423080000000  0.4952390000000 1.0
C      1  0.5047610000000  0.4627130000000  0.4423080000000 1.0
C      1  0.4952390000000  0.5372870000000  0.4423080000000 1.0
C      1  0.5047610000000  0.5372870000000  0.5576920000000 1.0
C      1  0.4423080000000  0.4952390000000  0.5372870000000 1.0
C      1  0.5576920000000  0.5047610000000  0.5372870000000 1.0
C      1  0.4423080000000  0.5047610000000  0.4627130000000 1.0
C      1  0.4952390000000  0.5576920000000  0.4627130000000 1.0
C      1  0.5576920000000  0.4627130000000  0.4952390000000 1.0
C      1  0.4627130000000  0.4952390000000  0.5576920000000 1.0
C      1  0.5047610000000  0.5576920000000  0.5372870000000 1.0
C      1  0.5047610000000  0.4423080000000  0.4627130000000 1.0
C      1  0.4952390000000  0.4423080000000  0.5372870000000 1.0
C      1  0.4423080000000  0.4627130000000  0.5047610000000 1.0
C      1  0.4423080000000  0.5372870000000  0.4952390000000 1.0
C      1  0.5576920000000  0.5372870000000  0.5047610000000 1.0
C      1  0.5372870000000  0.4952390000000  0.4423080000000 1.0
C      1  0.5372870000000  0.5047610000000  0.5576920000000 1.0
C      1  0.4627130000000  0.5047610000000  0.4423080000000 1.0
C      1  0.4977750000000  0.5588530000000  0.5238710000000 1.0
C      1  0.5238710000000  0.4977750000000  0.5588530000000 1.0
C      1  0.5588530000000  0.5238710000000  0.4977750000000 1.0
C      1  0.5022250000000  0.5588530000000  0.4761290000000 1.0
C      1  0.4977750000000  0.4411470000000  0.4761290000000 1.0
C      1  0.5022250000000  0.4411470000000  0.5238710000000 1.0
C      1  0.4761290000000  0.4977750000000  0.4411470000000 1.0
C      1  0.5238710000000  0.5022250000000  0.4411470000000 1.0
C      1  0.4761290000000  0.5022250000000  0.5588530000000 1.0
C      1  0.4411470000000  0.5238710000000  0.5022250000000 1.0
C      1  0.5588530000000  0.4761290000000  0.5022250000000 1.0
C      1  0.4411470000000  0.4761290000000  0.4977750000000 1.0
C      1  0.5238710000000  0.5588530000000  0.4977750000000 1.0
C      1  0.5588530000000  0.4977750000000  0.5238710000000 1.0
C      1  0.4977750000000  0.5238710000000  0.5588530000000 1.0
C      1  0.4761290000000  0.5588530000000  0.5022250000000 1.0
C      1  0.4761290000000  0.4411470000000  0.4977750000000 1.0
C      1  0.5238710000000  0.4411470000000  0.5022250000000 1.0
C      1  0.4411470000000  0.4977750000000  0.4761290000000 1.0
C      1  0.4411470000000  0.5022250000000  0.5238710000000 1.0
C      1  0.5588530000000  0.5022250000000  0.4761290000000 1.0
C      1  0.5022250000000  0.5238710000000  0.4411470000000 1.0
C      1  0.5022250000000  0.4761290000000  0.5588530000000 1.0
C      1  0.4977750000000  0.4761290000000  0.4411470000000 1.0
C      1  0.4432870000000  0.5197560000000  0.5471900000000 1.0
C      1  0.5471900000000  0.4432870000000  0.5197560000000 1.0
C      1  0.5197560000000  0.5471900000000  0.4432870000000 1.0
C      1  0.5567130000000  0.5197560000000  0.4528100000000 1.0
C      1  0.4432870000000  0.4802440000000  0.4528100000000 1.0
C      1  0.5567130000000  0.4802440000000  0.5471900000000 1.0
C      1  0.4528100000000  0.4432870000000  0.4802440000000 1.0
C      1  0.5471900000000  0.5567130000000  0.4802440000000 1.0
C      1  0.4528100000000  0.5567130000000  0.5197560000000 1.0
C      1  0.4802440000000  0.5471900000000  0.5567130000000 1.0
C      1  0.5197560000000  0.4528100000000  0.5567130000000 1.0
C      1  0.4802440000000  0.4528100000000  0.4432870000000 1.0
C      1  0.5471900000000  0.5197560000000  0.4432870000000 1.0
C      1  0.5197560000000  0.4432870000000  0.5471900000000 1.0
C      1  0.4432870000000  0.5471900000000  0.5197560000000 1.0
C      1  0.4528100000000  0.5197560000000  0.5567130000000 1.0
C      1  0.4528100000000  0.4802440000000  0.4432870000000 1.0
C      1  0.5471900000000  0.4802440000000  0.5567130000000 1.0
C      1  0.4802440000000  0.4432870000000  0.4528100000000 1.0
C      1  0.4802440000000  0.5567130000000  0.5471900000000 1.0
C      1  0.5197560000000  0.5567130000000  0.4528100000000 1.0
C      1  0.5567130000000  0.5471900000000  0.4802440000000 1.0
C      1  0.5567130000000  0.4528100000000  0.5197560000000 1.0
C      1  0.4432870000000  0.4528100000000  0.4802440000000 1.0
C      1  0.5242080000000  0.4660560000000  0.5135280000000 1.0
C      1  0.5135280000000  0.5242080000000  0.4660560000000 1.0
C      1  0.4660560000000  0.5135280000000  0.5242080000000 1.0
C      1  0.4757920000000  0.4660560000000  0.4864720000000 1.0
C      1  0.5242080000000  0.5339440000000  0.4864720000000 1.0
C      1  0.4757920000000  0.5339440000000  0.5135280000000 1.0
C      1  0.4864720000000  0.5242080000000  0.5339440000000 1.0
C      1  0.5135280000000  0.4757920000000  0.5339440000000 1.0
C      1  0.4864720000000  0.4757920000000  0.4660560000000 1.0
C      1  0.5339440000000  0.5135280000000  0.4757920000000 1.0
C      1  0.4660560000000  0.4864720000000  0.4757920000000 1.0
C      1  0.5339440000000  0.4864720000000  0.5242080000000 1.0
C      1  0.5135280000000  0.4660560000000  0.5242080000000 1.0
C      1  0.4660560000000  0.5242080000000  0.5135280000000 1.0
C      1  0.5242080000000  0.5135280000000  0.4660560000000 1.0
C      1  0.4864720000000  0.4660560000000  0.4757920000000 1.0
C      1  0.4864720000000  0.5339440000000  0.5242080000000 1.0
C      1  0.5135280000000  0.5339440000000  0.4757920000000 1.0
C      1  0.5339440000000  0.5242080000000  0.4864720000000 1.0
C      1  0.5339440000000  0.4757920000000  0.5135280000000 1.0
C      1  0.4660560000000  0.4757920000000  0.4864720000000 1.0
C      1  0.4757920000000  0.5135280000000  0.5339440000000 1.0
C      1  0.4757920000000  0.4864720000000  0.4660560000000 1.0
C      1  0.5242080000000  0.4864720000000  0.5339440000000 1.0
C      1  0.4354940000000  0.5003500000000  0.4892890000000 1.0
C      1  0.4892890000000  0.4354940000000  0.5003500000000 1.0
C      1  0.5003500000000  0.4892890000000  0.4354940000000 1.0
C      1  0.5645060000000  0.5003500000000  0.5107110000000 1.0
C      1  0.4354940000000  0.4996500000000  0.5107110000000 1.0
C      1  0.5645060000000  0.4996500000000  0.4892890000000 1.0
C      1  0.5107110000000  0.4354940000000  0.4996500000000 1.0
C      1  0.4892890000000  0.5645060000000  0.4996500000000 1.0
C      1  0.5107110000000  0.5645060000000  0.5003500000000 1.0
C      1  0.4996500000000  0.4892890000000  0.5645060000000 1.0
C      1  0.5003500000000  0.5107110000000  0.5645060000000 1.0
C      1  0.4996500000000  0.5107110000000  0.4354940000000 1.0
C      1  0.4892890000000  0.5003500000000  0.4354940000000 1.0
C      1  0.5003500000000  0.4354940000000  0.4892890000000 1.0
C      1  0.4354940000000  0.4892890000000  0.5003500000000 1.0
C      1  0.5107110000000  0.5003500000000  0.5645060000000 1.0
C      1  0.5107110000000  0.4996500000000  0.4354940000000 1.0
C      1  0.4892890000000  0.4996500000000  0.5645060000000 1.0
C      1  0.4996500000000  0.4354940000000  0.5107110000000 1.0
C      1  0.4996500000000  0.5645060000000  0.4892890000000 1.0
C      1  0.5003500000000  0.5645060000000  0.5107110000000 1.0
C      1  0.5645060000000  0.4892890000000  0.4996500000000 1.0
C      1  0.5645060000000  0.5107110000000  0.5003500000000 1.0
C      1  0.4354940000000  0.5107110000000  0.4996500000000 1.0
C      1  0.5293850000000  0.5393860000000  0.5195180000000 1.0
C      1  0.5195180000000  0.5293850000000  0.5393860000000 1.0
C      1  0.5393860000000  0.5195180000000  0.5293850000000 1.0
C      1  0.4706150000000  0.5393860000000  0.4804820000000 1.0
C      1  0.5293850000000  0.4606140000000  0.4804820000000 1.0
C      1  0.4706150000000  0.4606140000000  0.5195180000000 1.0
C      1  0.4804820000000  0.5293850000000  0.4606140000000 1.0
C      1  0.5195180000000  0.4706150000000  0.4606140000000 1.0
C      1  0.4804820000000  0.4706150000000  0.5393860000000 1.0
C      1  0.4606140000000  0.5195180000000  0.4706150000000 1.0
C      1  0.5393860000000  0.4804820000000  0.4706150000000 1.0
C      1  0.4606140000000  0.4804820000000  0.5293850000000 1.0
C      1  0.5195180000000  0.5393860000000  0.5293850000000 1.0
C      1  0.5393860000000  0.5293850000000  0.5195180000000 1.0
C      1  0.5293850000000  0.5195180000000  0.5393860000000 1.0
C      1  0.4804820000000  0.5393860000000  0.4706150000000 1.0
C      1  0.4804820000000  0.4606140000000  0.5293850000000 1.0
C      1  0.5195180000000  0.4606140000000  0.4706150000000 1.0
C      1  0.4606140000000  0.5293850000000  0.4804820000000 1.0
C      1  0.4606140000000  0.4706150000000  0.5195180000000 1.0
C      1  0.5393860000000  0.4706150000000  0.4804820000000 1.0
C      1  0.4706150000000  0.5195180000000  0.4606140000000 1.0
C      1  0.4706150000000  0.4804820000000  0.5393860000000 1.0
C      1  0.5293850000000  0.4804820000000  0.4606140000000 1.0
C      1  0.5515020000000  0.4600010000000  0.4828110000000 1.0
C      1  0.4828110000000  0.5515020000000  0.4600010000000 1.0
C      1  0.4600010000000  0.4828110000000  0.5515020000000 1.0
C      1  0.4484980000000  0.4600010000000  0.5171890000000 1.0
C      1  0.5515020000000  0.5399990000000  0.5171890000000 1.0
C      1  0.4484980000000  0.5399990000000  0.4828110000000 1.0
C      1  0.5171890000000  0.5515020000000  0.5399990000000 1.0
C      1  0.4828110000000  0.4484980000000  0.5399990000000 1.0
C      1  0.5171890000000  0.4484980000000  0.4600010000000 1.0
C      1  0.5399990000000  0.4828110000000  0.4484980000000 1.0
C      1  0.4600010000000  0.5171890000000  0.4484980000000 1.0
C      1  0.5399990000000  0.5171890000000  0.5515020000000 1.0
C      1  0.4828110000000  0.4600010000000  0.5515020000000 1.0
C      1  0.4600010000000  0.5515020000000  0.4828110000000 1.0
C      1  0.5515020000000  0.4828110000000  0.4600010000000 1.0
C      1  0.5171890000000  0.4600010000000  0.4484980000000 1.0
C      1  0.5171890000000  0.5399990000000  0.5515020000000 1.0
C      1  0.4828110000000  0.5399990000000  0.4484980000000 1.0
C      1  0.5399990000000  0.5515020000000  0.5171890000000 1.0
C      1  0.5399990000000  0.4484980000000  0.4828110000000 1.0
C      1  0.4600010000000  0.4484980000000  0.5171890000000 1.0
C      1  0.4484980000000  0.4828110000000  0.5399990000000 1.0
C      1  0.4484980000000  0.5171890000000  0.4600010000000 1.0
C      1  0.5515020000000  0.5171890000000  0.5399990000000 1.0
C      1  0.5292810000000  0.5595130000000  0.5380620000000 1.0
C      1  0.5380620000000  0.5292810000000  0.5595130000000 1.0
C      1  0.5595130000000  0.5380620000000  0.5292810000000 1.0
C      1  0.4707190000000  0.5595130000000  0.4619380000000 1.0
C      1  0.5292810000000  0.4404870000000  0.4619380000000 1.0
C      1  0.4707190000000  0.4404870000000  0.5380620000000 1.0
C      1  0.4619380000000  0.5292810000000  0.4404870000000 1.0
C      1  0.5380620000000  0.4707190000000  0.4404870000000 1.0
C      1  0.4619380000000  0.4707190000000  0.5595130000000 1.0
C      1  0.4404870000000  0.5380620000000  0.4707190000000 1.0
C      1  0.5595130000000  0.4619380000000  0.4707190000000 1.0
C      1  0.4404870000000  0.4619380000000  0.5292810000000 1.0
C      1  0.5380620000000  0.5595130000000  0.5292810000000 1.0
C      1  0.5595130000000  0.5292810000000  0.5380620000000 1.0
C      1  0.5292810000000  0.5380620000000  0.5595130000000 1.0
C      1  0.4619380000000  0.5595130000000  0.4707190000000 1.0
C      1  0.4619380000000  0.4404870000000  0.5292810000000 1.0
C      1  0.5380620000000  0.4404870000000  0.4707190000000 1.0
C      1  0.4404870000000  0.5292810000000  0.4619380000000 1.0
C      1  0.4404870000000  0.4707190000000  0.5380620000000 1.0
C      1  0.5595130000000  0.4707190000000  0.4619380000000 1.0
C      1  0.4707190000000  0.5380620000000  0.4404870000000 1.0
C      1  0.4707190000000  0.4619380000000  0.5595130000000 1.0
C      1  0.5292810000000  0.4619380000000  0.4404870000000 1.0
C      1  0.4532730000000  0.5194020000000  0.5091950000000 1.0
C      1  0.5091950000000  0.4532730000000  0.5194020000000 1.0
C      1  0.5194020000000  0.5091950000000  0.4532730000000 1.0
C      1  0.5467270000000  0.5194020000000  0.4908050000000 1.0
C      1  0.4532730000000  0.4805980000000  0.4908050000000 1.0
C      1  0.5467270000000  0.4805980000000  0.5091950000000 1.0
C      1  0.4908050000000  0.4532730000000  0.4805980000000 1.0
C      1  0.5091950000000  0.5467270000000  0.4805980000000 1.0
C      1  0.4908050000000  0.5467270000000  0.5194020000000 1.0
C      1  0.4805980000000  0.5091950000000  0.5467270000000 1.0
C      1  0.5194020000000  0.4908050000000  0.5467270000000 1.0
C      1  0.4805980000000  0.4908050000000  0.4532730000000 1.0
C      1  0.5091950000000  0.5194020000000  0.4532730000000 1.0
C      1  0.5194020000000  0.4532730000000  0.5091950000000 1.0
C      1  0.4532730000000  0.5091950000000  0.5194020000000 1.0
C      1  0.4908050000000  0.5194020000000  0.5467270000000 1.0
C      1  0.4908050000000  0.4805980000000  0.4532730000000 1.0
C      1  0.5091950000000  0.4805980000000  0.5467270000000 1.0
C      1  0.4805980000000  0.4532730000000  0.4908050000000 1.0
C      1  0.4805980000000  0.5467270000000  0.5091950000000 1.0
C      1  0.5194020000000  0.5467270000000  0.4908050000000 1.0
C      1  0.5467270000000  0.5091950000000  0.4805980000000 1.0
C      1  0.5467270000000  0.4908050000000  0.5194020000000 1.0
C      1  0.4532730000000  0.4908050000000  0.4805980000000 1.0
C      1  0.5065330000000  0.5627450000000  0.4559710000000 1.0
C      1  0.4559710000000  0.5065330000000  0.5627450000000 1.0
C      1  0.5627450000000  0.4559710000000  0.5065330000000 1.0
C      1  0.4934670000000  0.5627450000000  0.5440290000000 1.0
C      1  0.5065330000000  0.4372550000000  0.5440290000000 1.0
C      1  0.4934670000000  0.4372550000000  0.4559710000000 1.0
C      1  0.5440290000000  0.5065330000000  0.4372550000000 1.0
C      1  0.4559710000000  0.4934670000000  0.4372550000000 1.0
C      1  0.5440290000000  0.4934670000000  0.5627450000000 1.0
C      1  0.4372550000000  0.4559710000000  0.4934670000000 1.0
C      1  0.5627450000000  0.5440290000000  0.4934670000000 1.0
C      1  0.4372550000000  0.5440290000000  0.5065330000000 1.0
C      1  0.4559710000000  0.5627450000000  0.5065330000000 1.0
C      1  0.5627450000000  0.5065330000000  0.4559710000000 1.0
C      1  0.5065330000000  0.4559710000000  0.5627450000000 1.0
C      1  0.5440290000000  0.5627450000000  0.4934670000000 1.0
C      1  0.5440290000000  0.4372550000000  0.5065330000000 1.0
C      1  0.4559710000000  0.4372550000000  0.4934670000000 1.0
C      1  0.4372550000000  0.5065330000000  0.5440290000000 1.0
C      1  0.4372550000000  0.4934670000000  0.4559710000000 1.0
C      1  0.5627450000000  0.4934670000000  0.5440290000000 1.0
C      1  0.4934670000000  0.4559710000000  0.4372550000000 1.0
C      1  0.4934670000000  0.5440290000000  0.5627450000000 1.0
C      1  0.5065330000000  0.5440290000000  0.4372550000000 1.0
C      1  0.5624520000000  0.5354560000000  0.4740740000000 1.0
C      1  0.4740740000000  0.5624520000000  0.5354560000000 1.0
C      1  0.5354560000000  0.4740740000000  0.5624520000000 1.0
C      1  0.4375480000000  0.5354560000000  0.5259260000000 1.0
C      1  0.5624520000000  0.4645440000000  0.5259260000000 1.0
C      1  0.4375480000000  0.4645440000000  0.4740740000000 1.0
C      1  0.5259260000000  0.5624520000000  0.4645440000000 1.0
C      1  0.4740740000000  0.4375480000000  0.4645440000000 1.0
C      1  0.5259260000000  0.4375480000000  0.5354560000000 1.0
C      1  0.4645440000000  0.4740740000000  0.4375480000000 1.0
C      1  0.5354560000000  0.5259260000000  0.4375480000000 1.0
C      1  0.4645440000000  0.5259260000000  0.5624520000000 1.0
C      1  0.4740740000000  0.5354560000000  0.5624520000000 1.0
C      1  0.5354560000000  0.5624520000000  0.4740740000000 1.0
C      1  0.5624520000000  0.4740740000000  0.5354560000000 1.0
C      1  0.5259260000000  0.5354560000000  0.4375480000000 1.0
C      1  0.5259260000000  0.4645440000000  0.5624520000000 1.0
C      1  0.4740740000000  0.4645440000000  0.4375480000000 1.0
C      1  0.4645440000000  0.5624520000000  0.5259260000000 1.0
C      1  0.4645440000000  0.4375480000000  0.4740740000000 1.0
C      1  0.5354560000000  0.4375480000000  0.5259260000000 1.0
C      1  0.4375480000000  0.4740740000000  0.4645440000000 1.0
C      1  0.4375480000000  0.5259260000000  0.5354560000000 1.0
C      1  0.5624520000000  0.5259260000000  0.4645440000000 1.0
C      1  0.5048450000000  0.5786930000000  0.5048450000000 1.0
C      1  0.5048450000000  0.5048450000000  0.5786930000000 1.0
C      1  0.5786930000000  0.5048450000000  0.5048450000000 1.0
C      1  0.4951550000000  0.5786930000000  0.4951550000000 1.0
C      1  0.5048450000000  0.4213070000000  0.4951550000000 1.0
C      1  0.4951550000000  0.4213070000000  0.5048450000000 1.0
C      1  0.4951550000000  0.5048450000000  0.4213070000000 1.0
C      1  0.5048450000000  0.4951550000000  0.4213070000000 1.0
C      1  0.4951550000000  0.4951550000000  0.5786930000000 1.0
C      1  0.4213070000000  0.5048450000000  0.4951550000000 1.0
C      1  0.5786930000000  0.4951550000000  0.4951550000000 1.0
C      1  0.4213070000000  0.4951550000000  0.5048450000000 1.0
END
