TITL C-1887012-575-61 1.37949909743026e-06 1000000 -2633.91497091698 0 0 360 (Td) n - 1
REM
REM in /nfs/bkarasulu/CARBON/AIRSS/Generating-Clusters/GAP-ML-2020/Higher-Symm/Selected-Sizes/TryA-Only_Ih-Symm/Larger-Clusters
REM
REM
REM
REM
REM
REM ./C.cell (2cf5181f0f1d4d5b12b972d32ad12063)
REM
REM compiler GCC version 9.2.1 20190827 (Red Hat 9.2.1-1)
REM options -cpp -mtune=generic -march=x86-64 -g -O0 -fpre-include=/usr/include/finclude/math-vector-fortran.h
REM seed 505378124 1173237676 1147847720 1150928050 -1658108717 950512618 -2144454379 -991682223 1855594997 -1440184488 481295298 879565372 -1249694663 -1097405320 -1352087675 -1194297604 440718520 1741900174 -2095236520 304844177 -1866345432 -479197114 -1509027213 -1271553566 184876784 866949711 1952492352 1959011244 1736188178 915193514 2022986536 -1616022942 -1038887098
REM
CELL 1.54180  100.00000  100.00000  100.00000   90.00000   90.00000   90.00000
LATT -1
SFAC C  
C      1  0.4856990000000  0.4647780000000  0.5045670000000 1.0
C      1  0.4647780000000  0.5045670000000  0.4856990000000 1.0
C      1  0.5045670000000  0.4856990000000  0.4647780000000 1.0
C      1  0.4856990000000  0.5352220000000  0.4954330000000 1.0
C      1  0.5143010000000  0.4647780000000  0.4954330000000 1.0
C      1  0.5143010000000  0.5352220000000  0.5045670000000 1.0
C      1  0.4647780000000  0.4954330000000  0.5143010000000 1.0
C      1  0.5352220000000  0.5045670000000  0.5143010000000 1.0
C      1  0.5352220000000  0.4954330000000  0.4856990000000 1.0
C      1  0.5045670000000  0.5143010000000  0.5352220000000 1.0
C      1  0.4954330000000  0.4856990000000  0.5352220000000 1.0
C      1  0.4954330000000  0.5143010000000  0.4647780000000 1.0
C      1  0.4856990000000  0.5045670000000  0.4647780000000 1.0
C      1  0.4647780000000  0.4856990000000  0.5045670000000 1.0
C      1  0.5045670000000  0.4647780000000  0.4856990000000 1.0
C      1  0.4856990000000  0.4954330000000  0.5352220000000 1.0
C      1  0.5143010000000  0.4954330000000  0.4647780000000 1.0
C      1  0.5143010000000  0.5045670000000  0.5352220000000 1.0
C      1  0.4647780000000  0.5143010000000  0.4954330000000 1.0
C      1  0.5352220000000  0.5143010000000  0.5045670000000 1.0
C      1  0.5352220000000  0.4856990000000  0.4954330000000 1.0
C      1  0.5045670000000  0.5352220000000  0.5143010000000 1.0
C      1  0.4954330000000  0.5352220000000  0.4856990000000 1.0
C      1  0.4954330000000  0.4647780000000  0.5143010000000 1.0
C      1  0.5704770000000  0.4771150000000  0.5329670000000 1.0
C      1  0.4771150000000  0.5329670000000  0.5704770000000 1.0
C      1  0.5329670000000  0.5704770000000  0.4771150000000 1.0
C      1  0.5704770000000  0.5228850000000  0.4670330000000 1.0
C      1  0.4295230000000  0.4771150000000  0.4670330000000 1.0
C      1  0.4295230000000  0.5228850000000  0.5329670000000 1.0
C      1  0.4771150000000  0.4670330000000  0.4295230000000 1.0
C      1  0.5228850000000  0.5329670000000  0.4295230000000 1.0
C      1  0.5228850000000  0.4670330000000  0.5704770000000 1.0
C      1  0.5329670000000  0.4295230000000  0.5228850000000 1.0
C      1  0.4670330000000  0.5704770000000  0.5228850000000 1.0
C      1  0.4670330000000  0.4295230000000  0.4771150000000 1.0
C      1  0.5704770000000  0.5329670000000  0.4771150000000 1.0
C      1  0.4771150000000  0.5704770000000  0.5329670000000 1.0
C      1  0.5329670000000  0.4771150000000  0.5704770000000 1.0
C      1  0.5704770000000  0.4670330000000  0.5228850000000 1.0
C      1  0.4295230000000  0.4670330000000  0.4771150000000 1.0
C      1  0.4295230000000  0.5329670000000  0.5228850000000 1.0
C      1  0.4771150000000  0.4295230000000  0.4670330000000 1.0
C      1  0.5228850000000  0.4295230000000  0.5329670000000 1.0
C      1  0.5228850000000  0.5704770000000  0.4670330000000 1.0
C      1  0.5329670000000  0.5228850000000  0.4295230000000 1.0
C      1  0.4670330000000  0.5228850000000  0.5704770000000 1.0
C      1  0.4670330000000  0.4771150000000  0.4295230000000 1.0
C      1  0.4881500000000  0.5595870000000  0.4614880000000 1.0
C      1  0.5595870000000  0.4614880000000  0.4881500000000 1.0
C      1  0.4614880000000  0.4881500000000  0.5595870000000 1.0
C      1  0.4881500000000  0.4404130000000  0.5385120000000 1.0
C      1  0.5118500000000  0.5595870000000  0.5385120000000 1.0
C      1  0.5118500000000  0.4404130000000  0.4614880000000 1.0
C      1  0.5595870000000  0.5385120000000  0.5118500000000 1.0
C      1  0.4404130000000  0.4614880000000  0.5118500000000 1.0
C      1  0.4404130000000  0.5385120000000  0.4881500000000 1.0
C      1  0.4614880000000  0.5118500000000  0.4404130000000 1.0
C      1  0.5385120000000  0.4881500000000  0.4404130000000 1.0
C      1  0.5385120000000  0.5118500000000  0.5595870000000 1.0
C      1  0.4881500000000  0.4614880000000  0.5595870000000 1.0
C      1  0.5595870000000  0.4881500000000  0.4614880000000 1.0
C      1  0.4614880000000  0.5595870000000  0.4881500000000 1.0
C      1  0.4881500000000  0.5385120000000  0.4404130000000 1.0
C      1  0.5118500000000  0.5385120000000  0.5595870000000 1.0
C      1  0.5118500000000  0.4614880000000  0.4404130000000 1.0
C      1  0.5595870000000  0.5118500000000  0.5385120000000 1.0
C      1  0.4404130000000  0.5118500000000  0.4614880000000 1.0
C      1  0.4404130000000  0.4881500000000  0.5385120000000 1.0
C      1  0.4614880000000  0.4404130000000  0.5118500000000 1.0
C      1  0.5385120000000  0.4404130000000  0.4881500000000 1.0
C      1  0.5385120000000  0.5595870000000  0.5118500000000 1.0
C      1  0.5501870000000  0.5085680000000  0.4703580000000 1.0
C      1  0.5085680000000  0.4703580000000  0.5501870000000 1.0
C      1  0.4703580000000  0.5501870000000  0.5085680000000 1.0
C      1  0.5501870000000  0.4914320000000  0.5296420000000 1.0
C      1  0.4498130000000  0.5085680000000  0.5296420000000 1.0
C      1  0.4498130000000  0.4914320000000  0.4703580000000 1.0
C      1  0.5085680000000  0.5296420000000  0.4498130000000 1.0
C      1  0.4914320000000  0.4703580000000  0.4498130000000 1.0
C      1  0.4914320000000  0.5296420000000  0.5501870000000 1.0
C      1  0.4703580000000  0.4498130000000  0.4914320000000 1.0
C      1  0.5296420000000  0.5501870000000  0.4914320000000 1.0
C      1  0.5296420000000  0.4498130000000  0.5085680000000 1.0
C      1  0.5501870000000  0.4703580000000  0.5085680000000 1.0
C      1  0.5085680000000  0.5501870000000  0.4703580000000 1.0
C      1  0.4703580000000  0.5085680000000  0.5501870000000 1.0
C      1  0.5501870000000  0.5296420000000  0.4914320000000 1.0
C      1  0.4498130000000  0.5296420000000  0.5085680000000 1.0
C      1  0.4498130000000  0.4703580000000  0.4914320000000 1.0
C      1  0.5085680000000  0.4498130000000  0.5296420000000 1.0
C      1  0.4914320000000  0.4498130000000  0.4703580000000 1.0
C      1  0.4914320000000  0.5501870000000  0.5296420000000 1.0
C      1  0.4703580000000  0.4914320000000  0.4498130000000 1.0
C      1  0.5296420000000  0.4914320000000  0.5501870000000 1.0
C      1  0.5296420000000  0.5085680000000  0.4498130000000 1.0
C      1  0.5652650000000  0.5457310000000  0.4747200000000 1.0
C      1  0.5457310000000  0.4747200000000  0.5652650000000 1.0
C      1  0.4747200000000  0.5652650000000  0.5457310000000 1.0
C      1  0.5652650000000  0.4542690000000  0.5252800000000 1.0
C      1  0.4347350000000  0.5457310000000  0.5252800000000 1.0
C      1  0.4347350000000  0.4542690000000  0.4747200000000 1.0
C      1  0.5457310000000  0.5252800000000  0.4347350000000 1.0
C      1  0.4542690000000  0.4747200000000  0.4347350000000 1.0
C      1  0.4542690000000  0.5252800000000  0.5652650000000 1.0
C      1  0.4747200000000  0.4347350000000  0.4542690000000 1.0
C      1  0.5252800000000  0.5652650000000  0.4542690000000 1.0
C      1  0.5252800000000  0.4347350000000  0.5457310000000 1.0
C      1  0.5652650000000  0.4747200000000  0.5457310000000 1.0
C      1  0.5457310000000  0.5652650000000  0.4747200000000 1.0
C      1  0.4747200000000  0.5457310000000  0.5652650000000 1.0
C      1  0.5652650000000  0.5252800000000  0.4542690000000 1.0
C      1  0.4347350000000  0.5252800000000  0.5457310000000 1.0
C      1  0.4347350000000  0.4747200000000  0.4542690000000 1.0
C      1  0.5457310000000  0.4347350000000  0.5252800000000 1.0
C      1  0.4542690000000  0.4347350000000  0.4747200000000 1.0
C      1  0.4542690000000  0.5652650000000  0.5252800000000 1.0
C      1  0.4747200000000  0.4542690000000  0.4347350000000 1.0
C      1  0.5252800000000  0.4542690000000  0.5652650000000 1.0
C      1  0.5252800000000  0.5457310000000  0.4347350000000 1.0
C      1  0.4531560000000  0.5031610000000  0.4784630000000 1.0
C      1  0.5031610000000  0.4784630000000  0.4531560000000 1.0
C      1  0.4784630000000  0.4531560000000  0.5031610000000 1.0
C      1  0.4531560000000  0.4968390000000  0.5215370000000 1.0
C      1  0.5468440000000  0.5031610000000  0.5215370000000 1.0
C      1  0.5468440000000  0.4968390000000  0.4784630000000 1.0
C      1  0.5031610000000  0.5215370000000  0.5468440000000 1.0
C      1  0.4968390000000  0.4784630000000  0.5468440000000 1.0
C      1  0.4968390000000  0.5215370000000  0.4531560000000 1.0
C      1  0.4784630000000  0.5468440000000  0.4968390000000 1.0
C      1  0.5215370000000  0.4531560000000  0.4968390000000 1.0
C      1  0.5215370000000  0.5468440000000  0.5031610000000 1.0
C      1  0.4531560000000  0.4784630000000  0.5031610000000 1.0
C      1  0.5031610000000  0.4531560000000  0.4784630000000 1.0
C      1  0.4784630000000  0.5031610000000  0.4531560000000 1.0
C      1  0.4531560000000  0.5215370000000  0.4968390000000 1.0
C      1  0.5468440000000  0.5215370000000  0.5031610000000 1.0
C      1  0.5468440000000  0.4784630000000  0.4968390000000 1.0
C      1  0.5031610000000  0.5468440000000  0.5215370000000 1.0
C      1  0.4968390000000  0.5468440000000  0.4784630000000 1.0
C      1  0.4968390000000  0.4531560000000  0.5215370000000 1.0
C      1  0.4784630000000  0.4968390000000  0.5468440000000 1.0
C      1  0.5215370000000  0.4968390000000  0.4531560000000 1.0
C      1  0.5215370000000  0.5031610000000  0.5468440000000 1.0
C      1  0.5464850000000  0.4632690000000  0.4429530000000 1.0
C      1  0.4632690000000  0.4429530000000  0.5464850000000 1.0
C      1  0.4429530000000  0.5464850000000  0.4632690000000 1.0
C      1  0.5464850000000  0.5367310000000  0.5570470000000 1.0
C      1  0.4535150000000  0.4632690000000  0.5570470000000 1.0
C      1  0.4535150000000  0.5367310000000  0.4429530000000 1.0
C      1  0.4632690000000  0.5570470000000  0.4535150000000 1.0
C      1  0.5367310000000  0.4429530000000  0.4535150000000 1.0
C      1  0.5367310000000  0.5570470000000  0.5464850000000 1.0
C      1  0.4429530000000  0.4535150000000  0.5367310000000 1.0
C      1  0.5570470000000  0.5464850000000  0.5367310000000 1.0
C      1  0.5570470000000  0.4535150000000  0.4632690000000 1.0
C      1  0.5464850000000  0.4429530000000  0.4632690000000 1.0
C      1  0.4632690000000  0.5464850000000  0.4429530000000 1.0
C      1  0.4429530000000  0.4632690000000  0.5464850000000 1.0
C      1  0.5464850000000  0.5570470000000  0.5367310000000 1.0
C      1  0.4535150000000  0.5570470000000  0.4632690000000 1.0
C      1  0.4535150000000  0.4429530000000  0.5367310000000 1.0
C      1  0.4632690000000  0.4535150000000  0.5570470000000 1.0
C      1  0.5367310000000  0.4535150000000  0.4429530000000 1.0
C      1  0.5367310000000  0.5464850000000  0.5570470000000 1.0
C      1  0.4429530000000  0.5367310000000  0.4535150000000 1.0
C      1  0.5570470000000  0.5367310000000  0.5464850000000 1.0
C      1  0.5570470000000  0.4632690000000  0.4535150000000 1.0
C      1  0.4418180000000  0.4778160000000  0.5477490000000 1.0
C      1  0.4778160000000  0.5477490000000  0.4418180000000 1.0
C      1  0.5477490000000  0.4418180000000  0.4778160000000 1.0
C      1  0.4418180000000  0.5221840000000  0.4522510000000 1.0
C      1  0.5581820000000  0.4778160000000  0.4522510000000 1.0
C      1  0.5581820000000  0.5221840000000  0.5477490000000 1.0
C      1  0.4778160000000  0.4522510000000  0.5581820000000 1.0
C      1  0.5221840000000  0.5477490000000  0.5581820000000 1.0
C      1  0.5221840000000  0.4522510000000  0.4418180000000 1.0
C      1  0.5477490000000  0.5581820000000  0.5221840000000 1.0
C      1  0.4522510000000  0.4418180000000  0.5221840000000 1.0
C      1  0.4522510000000  0.5581820000000  0.4778160000000 1.0
C      1  0.4418180000000  0.5477490000000  0.4778160000000 1.0
C      1  0.4778160000000  0.4418180000000  0.5477490000000 1.0
C      1  0.5477490000000  0.4778160000000  0.4418180000000 1.0
C      1  0.4418180000000  0.4522510000000  0.5221840000000 1.0
C      1  0.5581820000000  0.4522510000000  0.4778160000000 1.0
C      1  0.5581820000000  0.5477490000000  0.5221840000000 1.0
C      1  0.4778160000000  0.5581820000000  0.4522510000000 1.0
C      1  0.5221840000000  0.5581820000000  0.5477490000000 1.0
C      1  0.5221840000000  0.4418180000000  0.4522510000000 1.0
C      1  0.5477490000000  0.5221840000000  0.5581820000000 1.0
C      1  0.4522510000000  0.5221840000000  0.4418180000000 1.0
C      1  0.4522510000000  0.4778160000000  0.5581820000000 1.0
C      1  0.5545960000000  0.4980430000000  0.5430630000000 1.0
C      1  0.4980430000000  0.5430630000000  0.5545960000000 1.0
C      1  0.5430630000000  0.5545960000000  0.4980430000000 1.0
C      1  0.5545960000000  0.5019570000000  0.4569370000000 1.0
C      1  0.4454040000000  0.4980430000000  0.4569370000000 1.0
C      1  0.4454040000000  0.5019570000000  0.5430630000000 1.0
C      1  0.4980430000000  0.4569370000000  0.4454040000000 1.0
C      1  0.5019570000000  0.5430630000000  0.4454040000000 1.0
C      1  0.5019570000000  0.4569370000000  0.5545960000000 1.0
C      1  0.5430630000000  0.4454040000000  0.5019570000000 1.0
C      1  0.4569370000000  0.5545960000000  0.5019570000000 1.0
C      1  0.4569370000000  0.4454040000000  0.4980430000000 1.0
C      1  0.5545960000000  0.5430630000000  0.4980430000000 1.0
C      1  0.4980430000000  0.5545960000000  0.5430630000000 1.0
C      1  0.5430630000000  0.4980430000000  0.5545960000000 1.0
C      1  0.5545960000000  0.4569370000000  0.5019570000000 1.0
C      1  0.4454040000000  0.4569370000000  0.4980430000000 1.0
C      1  0.4454040000000  0.5430630000000  0.5019570000000 1.0
C      1  0.4980430000000  0.4454040000000  0.4569370000000 1.0
C      1  0.5019570000000  0.4454040000000  0.5430630000000 1.0
C      1  0.5019570000000  0.5545960000000  0.4569370000000 1.0
C      1  0.5430630000000  0.5019570000000  0.4454040000000 1.0
C      1  0.4569370000000  0.5019570000000  0.5545960000000 1.0
C      1  0.4569370000000  0.4980430000000  0.4454040000000 1.0
C      1  0.4850930000000  0.5051710000000  0.5245900000000 1.0
C      1  0.5051710000000  0.5245900000000  0.4850930000000 1.0
C      1  0.5245900000000  0.4850930000000  0.5051710000000 1.0
C      1  0.4850930000000  0.4948290000000  0.4754100000000 1.0
C      1  0.5149070000000  0.5051710000000  0.4754100000000 1.0
C      1  0.5149070000000  0.4948290000000  0.5245900000000 1.0
C      1  0.5051710000000  0.4754100000000  0.5149070000000 1.0
C      1  0.4948290000000  0.5245900000000  0.5149070000000 1.0
C      1  0.4948290000000  0.4754100000000  0.4850930000000 1.0
C      1  0.5245900000000  0.5149070000000  0.4948290000000 1.0
C      1  0.4754100000000  0.4850930000000  0.4948290000000 1.0
C      1  0.4754100000000  0.5149070000000  0.5051710000000 1.0
C      1  0.4850930000000  0.5245900000000  0.5051710000000 1.0
C      1  0.5051710000000  0.4850930000000  0.5245900000000 1.0
C      1  0.5245900000000  0.5051710000000  0.4850930000000 1.0
C      1  0.4850930000000  0.4754100000000  0.4948290000000 1.0
C      1  0.5149070000000  0.4754100000000  0.5051710000000 1.0
C      1  0.5149070000000  0.5245900000000  0.4948290000000 1.0
C      1  0.5051710000000  0.5149070000000  0.4754100000000 1.0
C      1  0.4948290000000  0.5149070000000  0.5245900000000 1.0
C      1  0.4948290000000  0.4850930000000  0.4754100000000 1.0
C      1  0.5245900000000  0.4948290000000  0.5149070000000 1.0
C      1  0.4754100000000  0.4948290000000  0.4850930000000 1.0
C      1  0.4754100000000  0.5051710000000  0.5149070000000 1.0
C      1  0.5129640000000  0.5611300000000  0.4487210000000 1.0
C      1  0.5611300000000  0.4487210000000  0.5129640000000 1.0
C      1  0.4487210000000  0.5129640000000  0.5611300000000 1.0
C      1  0.5129640000000  0.4388700000000  0.5512790000000 1.0
C      1  0.4870360000000  0.5611300000000  0.5512790000000 1.0
C      1  0.4870360000000  0.4388700000000  0.4487210000000 1.0
C      1  0.5611300000000  0.5512790000000  0.4870360000000 1.0
C      1  0.4388700000000  0.4487210000000  0.4870360000000 1.0
C      1  0.4388700000000  0.5512790000000  0.5129640000000 1.0
C      1  0.4487210000000  0.4870360000000  0.4388700000000 1.0
C      1  0.5512790000000  0.5129640000000  0.4388700000000 1.0
C      1  0.5512790000000  0.4870360000000  0.5611300000000 1.0
C      1  0.5129640000000  0.4487210000000  0.5611300000000 1.0
C      1  0.5611300000000  0.5129640000000  0.4487210000000 1.0
C      1  0.4487210000000  0.5611300000000  0.5129640000000 1.0
C      1  0.5129640000000  0.5512790000000  0.4388700000000 1.0
C      1  0.4870360000000  0.5512790000000  0.5611300000000 1.0
C      1  0.4870360000000  0.4487210000000  0.4388700000000 1.0
C      1  0.5611300000000  0.4870360000000  0.5512790000000 1.0
C      1  0.4388700000000  0.4870360000000  0.4487210000000 1.0
C      1  0.4388700000000  0.5129640000000  0.5512790000000 1.0
C      1  0.4487210000000  0.4388700000000  0.4870360000000 1.0
C      1  0.5512790000000  0.4388700000000  0.5129640000000 1.0
C      1  0.5512790000000  0.5611300000000  0.4870360000000 1.0
C      1  0.5302900000000  0.4598710000000  0.5202240000000 1.0
C      1  0.4598710000000  0.5202240000000  0.5302900000000 1.0
C      1  0.5202240000000  0.5302900000000  0.4598710000000 1.0
C      1  0.5302900000000  0.5401290000000  0.4797760000000 1.0
C      1  0.4697100000000  0.4598710000000  0.4797760000000 1.0
C      1  0.4697100000000  0.5401290000000  0.5202240000000 1.0
C      1  0.4598710000000  0.4797760000000  0.4697100000000 1.0
C      1  0.5401290000000  0.5202240000000  0.4697100000000 1.0
C      1  0.5401290000000  0.4797760000000  0.5302900000000 1.0
C      1  0.5202240000000  0.4697100000000  0.5401290000000 1.0
C      1  0.4797760000000  0.5302900000000  0.5401290000000 1.0
C      1  0.4797760000000  0.4697100000000  0.4598710000000 1.0
C      1  0.5302900000000  0.5202240000000  0.4598710000000 1.0
C      1  0.4598710000000  0.5302900000000  0.5202240000000 1.0
C      1  0.5202240000000  0.4598710000000  0.5302900000000 1.0
C      1  0.5302900000000  0.4797760000000  0.5401290000000 1.0
C      1  0.4697100000000  0.4797760000000  0.4598710000000 1.0
C      1  0.4697100000000  0.5202240000000  0.5401290000000 1.0
C      1  0.4598710000000  0.4697100000000  0.4797760000000 1.0
C      1  0.5401290000000  0.4697100000000  0.5202240000000 1.0
C      1  0.5401290000000  0.5302900000000  0.4797760000000 1.0
C      1  0.5202240000000  0.5401290000000  0.4697100000000 1.0
C      1  0.4797760000000  0.5401290000000  0.5302900000000 1.0
C      1  0.4797760000000  0.4598710000000  0.4697100000000 1.0
C      1  0.5378450000000  0.5480260000000  0.4419110000000 1.0
C      1  0.5480260000000  0.4419110000000  0.5378450000000 1.0
C      1  0.4419110000000  0.5378450000000  0.5480260000000 1.0
C      1  0.5378450000000  0.4519740000000  0.5580890000000 1.0
C      1  0.4621550000000  0.5480260000000  0.5580890000000 1.0
C      1  0.4621550000000  0.4519740000000  0.4419110000000 1.0
C      1  0.5480260000000  0.5580890000000  0.4621550000000 1.0
C      1  0.4519740000000  0.4419110000000  0.4621550000000 1.0
C      1  0.4519740000000  0.5580890000000  0.5378450000000 1.0
C      1  0.4419110000000  0.4621550000000  0.4519740000000 1.0
C      1  0.5580890000000  0.5378450000000  0.4519740000000 1.0
C      1  0.5580890000000  0.4621550000000  0.5480260000000 1.0
C      1  0.5378450000000  0.4419110000000  0.5480260000000 1.0
C      1  0.5480260000000  0.5378450000000  0.4419110000000 1.0
C      1  0.4419110000000  0.5480260000000  0.5378450000000 1.0
C      1  0.5378450000000  0.5580890000000  0.4519740000000 1.0
C      1  0.4621550000000  0.5580890000000  0.5480260000000 1.0
C      1  0.4621550000000  0.4419110000000  0.4519740000000 1.0
C      1  0.5480260000000  0.4621550000000  0.5580890000000 1.0
C      1  0.4519740000000  0.4621550000000  0.4419110000000 1.0
C      1  0.4519740000000  0.5378450000000  0.5580890000000 1.0
C      1  0.4419110000000  0.4519740000000  0.4621550000000 1.0
C      1  0.5580890000000  0.4519740000000  0.5378450000000 1.0
C      1  0.5580890000000  0.5480260000000  0.4621550000000 1.0
C      1  0.5553500000000  0.5243530000000  0.5142750000000 1.0
C      1  0.5243530000000  0.5142750000000  0.5553500000000 1.0
C      1  0.5142750000000  0.5553500000000  0.5243530000000 1.0
C      1  0.5553500000000  0.4756470000000  0.4857250000000 1.0
C      1  0.4446500000000  0.5243530000000  0.4857250000000 1.0
C      1  0.4446500000000  0.4756470000000  0.5142750000000 1.0
C      1  0.5243530000000  0.4857250000000  0.4446500000000 1.0
C      1  0.4756470000000  0.5142750000000  0.4446500000000 1.0
C      1  0.4756470000000  0.4857250000000  0.5553500000000 1.0
C      1  0.5142750000000  0.4446500000000  0.4756470000000 1.0
C      1  0.4857250000000  0.5553500000000  0.4756470000000 1.0
C      1  0.4857250000000  0.4446500000000  0.5243530000000 1.0
C      1  0.5553500000000  0.5142750000000  0.5243530000000 1.0
C      1  0.5243530000000  0.5553500000000  0.5142750000000 1.0
C      1  0.5142750000000  0.5243530000000  0.5553500000000 1.0
C      1  0.5553500000000  0.4857250000000  0.4756470000000 1.0
C      1  0.4446500000000  0.4857250000000  0.5243530000000 1.0
C      1  0.4446500000000  0.5142750000000  0.4756470000000 1.0
C      1  0.5243530000000  0.4446500000000  0.4857250000000 1.0
C      1  0.4756470000000  0.4446500000000  0.5142750000000 1.0
C      1  0.4756470000000  0.5553500000000  0.4857250000000 1.0
C      1  0.5142750000000  0.4756470000000  0.4446500000000 1.0
C      1  0.4857250000000  0.4756470000000  0.5553500000000 1.0
C      1  0.4857250000000  0.5243530000000  0.4446500000000 1.0
C      1  0.5243120000000  0.5140730000000  0.4369090000000 1.0
C      1  0.5140730000000  0.4369090000000  0.5243120000000 1.0
C      1  0.4369090000000  0.5243120000000  0.5140730000000 1.0
C      1  0.5243120000000  0.4859270000000  0.5630910000000 1.0
C      1  0.4756880000000  0.5140730000000  0.5630910000000 1.0
C      1  0.4756880000000  0.4859270000000  0.4369090000000 1.0
C      1  0.5140730000000  0.5630910000000  0.4756880000000 1.0
C      1  0.4859270000000  0.4369090000000  0.4756880000000 1.0
C      1  0.4859270000000  0.5630910000000  0.5243120000000 1.0
C      1  0.4369090000000  0.4756880000000  0.4859270000000 1.0
C      1  0.5630910000000  0.5243120000000  0.4859270000000 1.0
C      1  0.5630910000000  0.4756880000000  0.5140730000000 1.0
C      1  0.5243120000000  0.4369090000000  0.5140730000000 1.0
C      1  0.5140730000000  0.5243120000000  0.4369090000000 1.0
C      1  0.4369090000000  0.5140730000000  0.5243120000000 1.0
C      1  0.5243120000000  0.5630910000000  0.4859270000000 1.0
C      1  0.4756880000000  0.5630910000000  0.5140730000000 1.0
C      1  0.4756880000000  0.4369090000000  0.4859270000000 1.0
C      1  0.5140730000000  0.4756880000000  0.5630910000000 1.0
C      1  0.4859270000000  0.4756880000000  0.4369090000000 1.0
C      1  0.4859270000000  0.5243120000000  0.5630910000000 1.0
C      1  0.4369090000000  0.4859270000000  0.4756880000000 1.0
C      1  0.5630910000000  0.4859270000000  0.5243120000000 1.0
C      1  0.5630910000000  0.5140730000000  0.4756880000000 1.0
END
