TITL C-1887024-9872-90 4.55055010135536e-07 1000000 -4202.39253789651 0 0 600 (Th) n - 1
REM
REM in /nfs/bkarasulu/CARBON/AIRSS/Generating-Clusters/GAP-ML-2020/Higher-Symm/Selected-Sizes/TryA-Only_Ih-Symm/Larger-Clusters
REM
REM
REM
REM
REM
REM ./C.cell (2cf5181f0f1d4d5b12b972d32ad12063)
REM
REM compiler GCC version 9.2.1 20190827 (Red Hat 9.2.1-1)
REM options -cpp -mtune=generic -march=x86-64 -g -O0 -fpre-include=/usr/include/finclude/math-vector-fortran.h
REM seed 165215142 955738455 -348574191 2095424770 -780547414 -503071686 -2105597209 -683745628 1590956665 1482038449 -249835538 143897160 792839169 -2038999445 1744366593 320079038 -449945756 -66043615 1833683449 797457203 -938817236 -399073937 -865498034 -1409484273 -1114756930 77652578 -1475147317 1132283365 570071866 -675070317 502010758 -558405221 648602753
REM
CELL 1.54180  100.00000  100.00000  100.00000   90.00000   90.00000   90.00000
LATT -1
SFAC C  
C      1  0.4921910000000  0.4425780000000  0.4926400000000 1.0
C      1  0.4425780000000  0.4926400000000  0.4921910000000 1.0
C      1  0.4926400000000  0.4921910000000  0.4425780000000 1.0
C      1  0.4921910000000  0.5574220000000  0.5073600000000 1.0
C      1  0.5078090000000  0.4425780000000  0.5073600000000 1.0
C      1  0.5078090000000  0.5574220000000  0.4926400000000 1.0
C      1  0.4425780000000  0.5073600000000  0.5078090000000 1.0
C      1  0.5574220000000  0.4926400000000  0.5078090000000 1.0
C      1  0.5574220000000  0.5073600000000  0.4921910000000 1.0
C      1  0.4926400000000  0.5078090000000  0.5574220000000 1.0
C      1  0.5073600000000  0.4921910000000  0.5574220000000 1.0
C      1  0.5073600000000  0.5078090000000  0.4425780000000 1.0
C      1  0.5078090000000  0.4425780000000  0.4926400000000 1.0
C      1  0.5574220000000  0.4926400000000  0.4921910000000 1.0
C      1  0.5073600000000  0.4921910000000  0.4425780000000 1.0
C      1  0.5078090000000  0.5574220000000  0.5073600000000 1.0
C      1  0.4921910000000  0.4425780000000  0.5073600000000 1.0
C      1  0.4921910000000  0.5574220000000  0.4926400000000 1.0
C      1  0.5574220000000  0.5073600000000  0.5078090000000 1.0
C      1  0.4425780000000  0.4926400000000  0.5078090000000 1.0
C      1  0.4425780000000  0.5073600000000  0.4921910000000 1.0
C      1  0.5073600000000  0.5078090000000  0.5574220000000 1.0
C      1  0.4926400000000  0.4921910000000  0.5574220000000 1.0
C      1  0.4926400000000  0.5078090000000  0.4425780000000 1.0
C      1  0.4922370000000  0.4844900000000  0.5298680000000 1.0
C      1  0.4844900000000  0.5298680000000  0.4922370000000 1.0
C      1  0.5298680000000  0.4922370000000  0.4844900000000 1.0
C      1  0.4922370000000  0.5155100000000  0.4701320000000 1.0
C      1  0.5077630000000  0.4844900000000  0.4701320000000 1.0
C      1  0.5077630000000  0.5155100000000  0.5298680000000 1.0
C      1  0.4844900000000  0.4701320000000  0.5077630000000 1.0
C      1  0.5155100000000  0.5298680000000  0.5077630000000 1.0
C      1  0.5155100000000  0.4701320000000  0.4922370000000 1.0
C      1  0.5298680000000  0.5077630000000  0.5155100000000 1.0
C      1  0.4701320000000  0.4922370000000  0.5155100000000 1.0
C      1  0.4701320000000  0.5077630000000  0.4844900000000 1.0
C      1  0.5077630000000  0.4844900000000  0.5298680000000 1.0
C      1  0.5155100000000  0.5298680000000  0.4922370000000 1.0
C      1  0.4701320000000  0.4922370000000  0.4844900000000 1.0
C      1  0.5077630000000  0.5155100000000  0.4701320000000 1.0
C      1  0.4922370000000  0.4844900000000  0.4701320000000 1.0
C      1  0.4922370000000  0.5155100000000  0.5298680000000 1.0
C      1  0.5155100000000  0.4701320000000  0.5077630000000 1.0
C      1  0.4844900000000  0.5298680000000  0.5077630000000 1.0
C      1  0.4844900000000  0.4701320000000  0.4922370000000 1.0
C      1  0.4701320000000  0.5077630000000  0.5155100000000 1.0
C      1  0.5298680000000  0.4922370000000  0.5155100000000 1.0
C      1  0.5298680000000  0.5077630000000  0.4844900000000 1.0
C      1  0.5626160000000  0.4408090000000  0.4723310000000 1.0
C      1  0.4408090000000  0.4723310000000  0.5626160000000 1.0
C      1  0.4723310000000  0.5626160000000  0.4408090000000 1.0
C      1  0.5626160000000  0.5591910000000  0.5276690000000 1.0
C      1  0.4373840000000  0.4408090000000  0.5276690000000 1.0
C      1  0.4373840000000  0.5591910000000  0.4723310000000 1.0
C      1  0.4408090000000  0.5276690000000  0.4373840000000 1.0
C      1  0.5591910000000  0.4723310000000  0.4373840000000 1.0
C      1  0.5591910000000  0.5276690000000  0.5626160000000 1.0
C      1  0.4723310000000  0.4373840000000  0.5591910000000 1.0
C      1  0.5276690000000  0.5626160000000  0.5591910000000 1.0
C      1  0.5276690000000  0.4373840000000  0.4408090000000 1.0
C      1  0.4373840000000  0.4408090000000  0.4723310000000 1.0
C      1  0.5591910000000  0.4723310000000  0.5626160000000 1.0
C      1  0.5276690000000  0.5626160000000  0.4408090000000 1.0
C      1  0.4373840000000  0.5591910000000  0.5276690000000 1.0
C      1  0.5626160000000  0.4408090000000  0.5276690000000 1.0
C      1  0.5626160000000  0.5591910000000  0.4723310000000 1.0
C      1  0.5591910000000  0.5276690000000  0.4373840000000 1.0
C      1  0.4408090000000  0.4723310000000  0.4373840000000 1.0
C      1  0.4408090000000  0.5276690000000  0.5626160000000 1.0
C      1  0.5276690000000  0.4373840000000  0.5591910000000 1.0
C      1  0.4723310000000  0.5626160000000  0.5591910000000 1.0
C      1  0.4723310000000  0.4373840000000  0.4408090000000 1.0
C      1  0.4247950000000  0.4619180000000  0.4830240000000 1.0
C      1  0.4619180000000  0.4830240000000  0.4247950000000 1.0
C      1  0.4830240000000  0.4247950000000  0.4619180000000 1.0
C      1  0.4247950000000  0.5380820000000  0.5169760000000 1.0
C      1  0.5752050000000  0.4619180000000  0.5169760000000 1.0
C      1  0.5752050000000  0.5380820000000  0.4830240000000 1.0
C      1  0.4619180000000  0.5169760000000  0.5752050000000 1.0
C      1  0.5380820000000  0.4830240000000  0.5752050000000 1.0
C      1  0.5380820000000  0.5169760000000  0.4247950000000 1.0
C      1  0.4830240000000  0.5752050000000  0.5380820000000 1.0
C      1  0.5169760000000  0.4247950000000  0.5380820000000 1.0
C      1  0.5169760000000  0.5752050000000  0.4619180000000 1.0
C      1  0.5752050000000  0.4619180000000  0.4830240000000 1.0
C      1  0.5380820000000  0.4830240000000  0.4247950000000 1.0
C      1  0.5169760000000  0.4247950000000  0.4619180000000 1.0
C      1  0.5752050000000  0.5380820000000  0.5169760000000 1.0
C      1  0.4247950000000  0.4619180000000  0.5169760000000 1.0
C      1  0.4247950000000  0.5380820000000  0.4830240000000 1.0
C      1  0.5380820000000  0.5169760000000  0.5752050000000 1.0
C      1  0.4619180000000  0.4830240000000  0.5752050000000 1.0
C      1  0.4619180000000  0.5169760000000  0.4247950000000 1.0
C      1  0.5169760000000  0.5752050000000  0.5380820000000 1.0
C      1  0.4830240000000  0.4247950000000  0.5380820000000 1.0
C      1  0.4830240000000  0.5752050000000  0.4619180000000 1.0
C      1  0.4574390000000  0.4289840000000  0.5307250000000 1.0
C      1  0.4289840000000  0.5307250000000  0.4574390000000 1.0
C      1  0.5307250000000  0.4574390000000  0.4289840000000 1.0
C      1  0.4574390000000  0.5710160000000  0.4692750000000 1.0
C      1  0.5425610000000  0.4289840000000  0.4692750000000 1.0
C      1  0.5425610000000  0.5710160000000  0.5307250000000 1.0
C      1  0.4289840000000  0.4692750000000  0.5425610000000 1.0
C      1  0.5710160000000  0.5307250000000  0.5425610000000 1.0
C      1  0.5710160000000  0.4692750000000  0.4574390000000 1.0
C      1  0.5307250000000  0.5425610000000  0.5710160000000 1.0
C      1  0.4692750000000  0.4574390000000  0.5710160000000 1.0
C      1  0.4692750000000  0.5425610000000  0.4289840000000 1.0
C      1  0.5425610000000  0.4289840000000  0.5307250000000 1.0
C      1  0.5710160000000  0.5307250000000  0.4574390000000 1.0
C      1  0.4692750000000  0.4574390000000  0.4289840000000 1.0
C      1  0.5425610000000  0.5710160000000  0.4692750000000 1.0
C      1  0.4574390000000  0.4289840000000  0.4692750000000 1.0
C      1  0.4574390000000  0.5710160000000  0.5307250000000 1.0
C      1  0.5710160000000  0.4692750000000  0.5425610000000 1.0
C      1  0.4289840000000  0.5307250000000  0.5425610000000 1.0
C      1  0.4289840000000  0.4692750000000  0.4574390000000 1.0
C      1  0.4692750000000  0.5425610000000  0.5710160000000 1.0
C      1  0.5307250000000  0.4574390000000  0.5710160000000 1.0
C      1  0.5307250000000  0.5425610000000  0.4289840000000 1.0
C      1  0.5449130000000  0.5118970000000  0.4836770000000 1.0
C      1  0.5118970000000  0.4836770000000  0.5449130000000 1.0
C      1  0.4836770000000  0.5449130000000  0.5118970000000 1.0
C      1  0.5449130000000  0.4881030000000  0.5163230000000 1.0
C      1  0.4550870000000  0.5118970000000  0.5163230000000 1.0
C      1  0.4550870000000  0.4881030000000  0.4836770000000 1.0
C      1  0.5118970000000  0.5163230000000  0.4550870000000 1.0
C      1  0.4881030000000  0.4836770000000  0.4550870000000 1.0
C      1  0.4881030000000  0.5163230000000  0.5449130000000 1.0
C      1  0.4836770000000  0.4550870000000  0.4881030000000 1.0
C      1  0.5163230000000  0.5449130000000  0.4881030000000 1.0
C      1  0.5163230000000  0.4550870000000  0.5118970000000 1.0
C      1  0.4550870000000  0.5118970000000  0.4836770000000 1.0
C      1  0.4881030000000  0.4836770000000  0.5449130000000 1.0
C      1  0.5163230000000  0.5449130000000  0.5118970000000 1.0
C      1  0.4550870000000  0.4881030000000  0.5163230000000 1.0
C      1  0.5449130000000  0.5118970000000  0.5163230000000 1.0
C      1  0.5449130000000  0.4881030000000  0.4836770000000 1.0
C      1  0.4881030000000  0.5163230000000  0.4550870000000 1.0
C      1  0.5118970000000  0.4836770000000  0.4550870000000 1.0
C      1  0.5118970000000  0.5163230000000  0.5449130000000 1.0
C      1  0.5163230000000  0.4550870000000  0.4881030000000 1.0
C      1  0.4836770000000  0.5449130000000  0.4881030000000 1.0
C      1  0.4836770000000  0.4550870000000  0.5118970000000 1.0
C      1  0.5552340000000  0.4924040000000  0.5590700000000 1.0
C      1  0.4924040000000  0.5590700000000  0.5552340000000 1.0
C      1  0.5590700000000  0.5552340000000  0.4924040000000 1.0
C      1  0.5552340000000  0.5075960000000  0.4409300000000 1.0
C      1  0.4447660000000  0.4924040000000  0.4409300000000 1.0
C      1  0.4447660000000  0.5075960000000  0.5590700000000 1.0
C      1  0.4924040000000  0.4409300000000  0.4447660000000 1.0
C      1  0.5075960000000  0.5590700000000  0.4447660000000 1.0
C      1  0.5075960000000  0.4409300000000  0.5552340000000 1.0
C      1  0.5590700000000  0.4447660000000  0.5075960000000 1.0
C      1  0.4409300000000  0.5552340000000  0.5075960000000 1.0
C      1  0.4409300000000  0.4447660000000  0.4924040000000 1.0
C      1  0.4447660000000  0.4924040000000  0.5590700000000 1.0
C      1  0.5075960000000  0.5590700000000  0.5552340000000 1.0
C      1  0.4409300000000  0.5552340000000  0.4924040000000 1.0
C      1  0.4447660000000  0.5075960000000  0.4409300000000 1.0
C      1  0.5552340000000  0.4924040000000  0.4409300000000 1.0
C      1  0.5552340000000  0.5075960000000  0.5590700000000 1.0
C      1  0.5075960000000  0.4409300000000  0.4447660000000 1.0
C      1  0.4924040000000  0.5590700000000  0.4447660000000 1.0
C      1  0.4924040000000  0.4409300000000  0.5552340000000 1.0
C      1  0.4409300000000  0.4447660000000  0.5075960000000 1.0
C      1  0.5590700000000  0.5552340000000  0.5075960000000 1.0
C      1  0.5590700000000  0.4447660000000  0.4924040000000 1.0
C      1  0.4761820000000  0.5078830000000  0.4582810000000 1.0
C      1  0.5078830000000  0.4582810000000  0.4761820000000 1.0
C      1  0.4582810000000  0.4761820000000  0.5078830000000 1.0
C      1  0.4761820000000  0.4921170000000  0.5417190000000 1.0
C      1  0.5238180000000  0.5078830000000  0.5417190000000 1.0
C      1  0.5238180000000  0.4921170000000  0.4582810000000 1.0
C      1  0.5078830000000  0.5417190000000  0.5238180000000 1.0
C      1  0.4921170000000  0.4582810000000  0.5238180000000 1.0
C      1  0.4921170000000  0.5417190000000  0.4761820000000 1.0
C      1  0.4582810000000  0.5238180000000  0.4921170000000 1.0
C      1  0.5417190000000  0.4761820000000  0.4921170000000 1.0
C      1  0.5417190000000  0.5238180000000  0.5078830000000 1.0
C      1  0.5238180000000  0.5078830000000  0.4582810000000 1.0
C      1  0.4921170000000  0.4582810000000  0.4761820000000 1.0
C      1  0.5417190000000  0.4761820000000  0.5078830000000 1.0
C      1  0.5238180000000  0.4921170000000  0.5417190000000 1.0
C      1  0.4761820000000  0.5078830000000  0.5417190000000 1.0
C      1  0.4761820000000  0.4921170000000  0.4582810000000 1.0
C      1  0.4921170000000  0.5417190000000  0.5238180000000 1.0
C      1  0.5078830000000  0.4582810000000  0.5238180000000 1.0
C      1  0.5078830000000  0.5417190000000  0.4761820000000 1.0
C      1  0.5417190000000  0.5238180000000  0.4921170000000 1.0
C      1  0.4582810000000  0.4761820000000  0.4921170000000 1.0
C      1  0.4582810000000  0.5238180000000  0.5078830000000 1.0
C      1  0.5334240000000  0.4857180000000  0.4496450000000 1.0
C      1  0.4857180000000  0.4496450000000  0.5334240000000 1.0
C      1  0.4496450000000  0.5334240000000  0.4857180000000 1.0
C      1  0.5334240000000  0.5142820000000  0.5503550000000 1.0
C      1  0.4665760000000  0.4857180000000  0.5503550000000 1.0
C      1  0.4665760000000  0.5142820000000  0.4496450000000 1.0
C      1  0.4857180000000  0.5503550000000  0.4665760000000 1.0
C      1  0.5142820000000  0.4496450000000  0.4665760000000 1.0
C      1  0.5142820000000  0.5503550000000  0.5334240000000 1.0
C      1  0.4496450000000  0.4665760000000  0.5142820000000 1.0
C      1  0.5503550000000  0.5334240000000  0.5142820000000 1.0
C      1  0.5503550000000  0.4665760000000  0.4857180000000 1.0
C      1  0.4665760000000  0.4857180000000  0.4496450000000 1.0
C      1  0.5142820000000  0.4496450000000  0.5334240000000 1.0
C      1  0.5503550000000  0.5334240000000  0.4857180000000 1.0
C      1  0.4665760000000  0.5142820000000  0.5503550000000 1.0
C      1  0.5334240000000  0.4857180000000  0.5503550000000 1.0
C      1  0.5334240000000  0.5142820000000  0.4496450000000 1.0
C      1  0.5142820000000  0.5503550000000  0.4665760000000 1.0
C      1  0.4857180000000  0.4496450000000  0.4665760000000 1.0
C      1  0.4857180000000  0.5503550000000  0.5334240000000 1.0
C      1  0.5503550000000  0.4665760000000  0.5142820000000 1.0
C      1  0.4496450000000  0.5334240000000  0.5142820000000 1.0
C      1  0.4496450000000  0.4665760000000  0.4857180000000 1.0
C      1  0.5295230000000  0.5761270000000  0.4710250000000 1.0
C      1  0.5761270000000  0.4710250000000  0.5295230000000 1.0
C      1  0.4710250000000  0.5295230000000  0.5761270000000 1.0
C      1  0.5295230000000  0.4238730000000  0.5289750000000 1.0
C      1  0.4704770000000  0.5761270000000  0.5289750000000 1.0
C      1  0.4704770000000  0.4238730000000  0.4710250000000 1.0
C      1  0.5761270000000  0.5289750000000  0.4704770000000 1.0
C      1  0.4238730000000  0.4710250000000  0.4704770000000 1.0
C      1  0.4238730000000  0.5289750000000  0.5295230000000 1.0
C      1  0.4710250000000  0.4704770000000  0.4238730000000 1.0
C      1  0.5289750000000  0.5295230000000  0.4238730000000 1.0
C      1  0.5289750000000  0.4704770000000  0.5761270000000 1.0
C      1  0.4704770000000  0.5761270000000  0.4710250000000 1.0
C      1  0.4238730000000  0.4710250000000  0.5295230000000 1.0
C      1  0.5289750000000  0.5295230000000  0.5761270000000 1.0
C      1  0.4704770000000  0.4238730000000  0.5289750000000 1.0
C      1  0.5295230000000  0.5761270000000  0.5289750000000 1.0
C      1  0.5295230000000  0.4238730000000  0.4710250000000 1.0
C      1  0.4238730000000  0.5289750000000  0.4704770000000 1.0
C      1  0.5761270000000  0.4710250000000  0.4704770000000 1.0
C      1  0.5761270000000  0.5289750000000  0.5295230000000 1.0
C      1  0.5289750000000  0.4704770000000  0.4238730000000 1.0
C      1  0.4710250000000  0.5295230000000  0.4238730000000 1.0
C      1  0.4710250000000  0.4704770000000  0.5761270000000 1.0
C      1  0.5638110000000  0.5302600000000  0.4920370000000 1.0
C      1  0.5302600000000  0.4920370000000  0.5638110000000 1.0
C      1  0.4920370000000  0.5638110000000  0.5302600000000 1.0
C      1  0.5638110000000  0.4697400000000  0.5079630000000 1.0
C      1  0.4361890000000  0.5302600000000  0.5079630000000 1.0
C      1  0.4361890000000  0.4697400000000  0.4920370000000 1.0
C      1  0.5302600000000  0.5079630000000  0.4361890000000 1.0
C      1  0.4697400000000  0.4920370000000  0.4361890000000 1.0
C      1  0.4697400000000  0.5079630000000  0.5638110000000 1.0
C      1  0.4920370000000  0.4361890000000  0.4697400000000 1.0
C      1  0.5079630000000  0.5638110000000  0.4697400000000 1.0
C      1  0.5079630000000  0.4361890000000  0.5302600000000 1.0
C      1  0.4361890000000  0.5302600000000  0.4920370000000 1.0
C      1  0.4697400000000  0.4920370000000  0.5638110000000 1.0
C      1  0.5079630000000  0.5638110000000  0.5302600000000 1.0
C      1  0.4361890000000  0.4697400000000  0.5079630000000 1.0
C      1  0.5638110000000  0.5302600000000  0.5079630000000 1.0
C      1  0.5638110000000  0.4697400000000  0.4920370000000 1.0
C      1  0.4697400000000  0.5079630000000  0.4361890000000 1.0
C      1  0.5302600000000  0.4920370000000  0.4361890000000 1.0
C      1  0.5302600000000  0.5079630000000  0.5638110000000 1.0
C      1  0.5079630000000  0.4361890000000  0.4697400000000 1.0
C      1  0.4920370000000  0.5638110000000  0.4697400000000 1.0
C      1  0.4920370000000  0.4361890000000  0.5302600000000 1.0
C      1  0.5178790000000  0.4929590000000  0.5829870000000 1.0
C      1  0.4929590000000  0.5829870000000  0.5178790000000 1.0
C      1  0.5829870000000  0.5178790000000  0.4929590000000 1.0
C      1  0.5178790000000  0.5070410000000  0.4170130000000 1.0
C      1  0.4821210000000  0.4929590000000  0.4170130000000 1.0
C      1  0.4821210000000  0.5070410000000  0.5829870000000 1.0
C      1  0.4929590000000  0.4170130000000  0.4821210000000 1.0
C      1  0.5070410000000  0.5829870000000  0.4821210000000 1.0
C      1  0.5070410000000  0.4170130000000  0.5178790000000 1.0
C      1  0.5829870000000  0.4821210000000  0.5070410000000 1.0
C      1  0.4170130000000  0.5178790000000  0.5070410000000 1.0
C      1  0.4170130000000  0.4821210000000  0.4929590000000 1.0
C      1  0.4821210000000  0.4929590000000  0.5829870000000 1.0
C      1  0.5070410000000  0.5829870000000  0.5178790000000 1.0
C      1  0.4170130000000  0.5178790000000  0.4929590000000 1.0
C      1  0.4821210000000  0.5070410000000  0.4170130000000 1.0
C      1  0.5178790000000  0.4929590000000  0.4170130000000 1.0
C      1  0.5178790000000  0.5070410000000  0.5829870000000 1.0
C      1  0.5070410000000  0.4170130000000  0.4821210000000 1.0
C      1  0.4929590000000  0.5829870000000  0.4821210000000 1.0
C      1  0.4929590000000  0.4170130000000  0.5178790000000 1.0
C      1  0.4170130000000  0.4821210000000  0.5070410000000 1.0
C      1  0.5829870000000  0.5178790000000  0.5070410000000 1.0
C      1  0.5829870000000  0.4821210000000  0.4929590000000 1.0
C      1  0.4498090000000  0.4703860000000  0.4702950000000 1.0
C      1  0.4703860000000  0.4702950000000  0.4498090000000 1.0
C      1  0.4702950000000  0.4498090000000  0.4703860000000 1.0
C      1  0.4498090000000  0.5296140000000  0.5297050000000 1.0
C      1  0.5501910000000  0.4703860000000  0.5297050000000 1.0
C      1  0.5501910000000  0.5296140000000  0.4702950000000 1.0
C      1  0.4703860000000  0.5297050000000  0.5501910000000 1.0
C      1  0.5296140000000  0.4702950000000  0.5501910000000 1.0
C      1  0.5296140000000  0.5297050000000  0.4498090000000 1.0
C      1  0.4702950000000  0.5501910000000  0.5296140000000 1.0
C      1  0.5297050000000  0.4498090000000  0.5296140000000 1.0
C      1  0.5297050000000  0.5501910000000  0.4703860000000 1.0
C      1  0.5501910000000  0.4703860000000  0.4702950000000 1.0
C      1  0.5296140000000  0.4702950000000  0.4498090000000 1.0
C      1  0.5297050000000  0.4498090000000  0.4703860000000 1.0
C      1  0.5501910000000  0.5296140000000  0.5297050000000 1.0
C      1  0.4498090000000  0.4703860000000  0.5297050000000 1.0
C      1  0.4498090000000  0.5296140000000  0.4702950000000 1.0
C      1  0.5296140000000  0.5297050000000  0.5501910000000 1.0
C      1  0.4703860000000  0.4702950000000  0.5501910000000 1.0
C      1  0.4703860000000  0.5297050000000  0.4498090000000 1.0
C      1  0.5297050000000  0.5501910000000  0.5296140000000 1.0
C      1  0.4702950000000  0.4498090000000  0.5296140000000 1.0
C      1  0.4702950000000  0.5501910000000  0.4703860000000 1.0
C      1  0.4298890000000  0.4925180000000  0.5563860000000 1.0
C      1  0.4925180000000  0.5563860000000  0.4298890000000 1.0
C      1  0.5563860000000  0.4298890000000  0.4925180000000 1.0
C      1  0.4298890000000  0.5074820000000  0.4436140000000 1.0
C      1  0.5701110000000  0.4925180000000  0.4436140000000 1.0
C      1  0.5701110000000  0.5074820000000  0.5563860000000 1.0
C      1  0.4925180000000  0.4436140000000  0.5701110000000 1.0
C      1  0.5074820000000  0.5563860000000  0.5701110000000 1.0
C      1  0.5074820000000  0.4436140000000  0.4298890000000 1.0
C      1  0.5563860000000  0.5701110000000  0.5074820000000 1.0
C      1  0.4436140000000  0.4298890000000  0.5074820000000 1.0
C      1  0.4436140000000  0.5701110000000  0.4925180000000 1.0
C      1  0.5701110000000  0.4925180000000  0.5563860000000 1.0
C      1  0.5074820000000  0.5563860000000  0.4298890000000 1.0
C      1  0.4436140000000  0.4298890000000  0.4925180000000 1.0
C      1  0.5701110000000  0.5074820000000  0.4436140000000 1.0
C      1  0.4298890000000  0.4925180000000  0.4436140000000 1.0
C      1  0.4298890000000  0.5074820000000  0.5563860000000 1.0
C      1  0.5074820000000  0.4436140000000  0.5701110000000 1.0
C      1  0.4925180000000  0.5563860000000  0.5701110000000 1.0
C      1  0.4925180000000  0.4436140000000  0.4298890000000 1.0
C      1  0.4436140000000  0.5701110000000  0.5074820000000 1.0
C      1  0.5563860000000  0.4298890000000  0.5074820000000 1.0
C      1  0.5563860000000  0.5701110000000  0.4925180000000 1.0
C      1  0.5313590000000  0.4494440000000  0.5144160000000 1.0
C      1  0.4494440000000  0.5144160000000  0.5313590000000 1.0
C      1  0.5144160000000  0.5313590000000  0.4494440000000 1.0
C      1  0.5313590000000  0.5505560000000  0.4855840000000 1.0
C      1  0.4686410000000  0.4494440000000  0.4855840000000 1.0
C      1  0.4686410000000  0.5505560000000  0.5144160000000 1.0
C      1  0.4494440000000  0.4855840000000  0.4686410000000 1.0
C      1  0.5505560000000  0.5144160000000  0.4686410000000 1.0
C      1  0.5505560000000  0.4855840000000  0.5313590000000 1.0
C      1  0.5144160000000  0.4686410000000  0.5505560000000 1.0
C      1  0.4855840000000  0.5313590000000  0.5505560000000 1.0
C      1  0.4855840000000  0.4686410000000  0.4494440000000 1.0
C      1  0.4686410000000  0.4494440000000  0.5144160000000 1.0
C      1  0.5505560000000  0.5144160000000  0.5313590000000 1.0
C      1  0.4855840000000  0.5313590000000  0.4494440000000 1.0
C      1  0.4686410000000  0.5505560000000  0.4855840000000 1.0
C      1  0.5313590000000  0.4494440000000  0.4855840000000 1.0
C      1  0.5313590000000  0.5505560000000  0.5144160000000 1.0
C      1  0.5505560000000  0.4855840000000  0.4686410000000 1.0
C      1  0.4494440000000  0.5144160000000  0.4686410000000 1.0
C      1  0.4494440000000  0.4855840000000  0.5313590000000 1.0
C      1  0.4855840000000  0.4686410000000  0.5505560000000 1.0
C      1  0.5144160000000  0.5313590000000  0.5505560000000 1.0
C      1  0.5144160000000  0.4686410000000  0.4494440000000 1.0
C      1  0.4482040000000  0.5174720000000  0.5695320000000 1.0
C      1  0.5174720000000  0.5695320000000  0.4482040000000 1.0
C      1  0.5695320000000  0.4482040000000  0.5174720000000 1.0
C      1  0.4482040000000  0.4825280000000  0.4304680000000 1.0
C      1  0.5517960000000  0.5174720000000  0.4304680000000 1.0
C      1  0.5517960000000  0.4825280000000  0.5695320000000 1.0
C      1  0.5174720000000  0.4304680000000  0.5517960000000 1.0
C      1  0.4825280000000  0.5695320000000  0.5517960000000 1.0
C      1  0.4825280000000  0.4304680000000  0.4482040000000 1.0
C      1  0.5695320000000  0.5517960000000  0.4825280000000 1.0
C      1  0.4304680000000  0.4482040000000  0.4825280000000 1.0
C      1  0.4304680000000  0.5517960000000  0.5174720000000 1.0
C      1  0.5517960000000  0.5174720000000  0.5695320000000 1.0
C      1  0.4825280000000  0.5695320000000  0.4482040000000 1.0
C      1  0.4304680000000  0.4482040000000  0.5174720000000 1.0
C      1  0.5517960000000  0.4825280000000  0.4304680000000 1.0
C      1  0.4482040000000  0.5174720000000  0.4304680000000 1.0
C      1  0.4482040000000  0.4825280000000  0.5695320000000 1.0
C      1  0.4825280000000  0.4304680000000  0.5517960000000 1.0
C      1  0.5174720000000  0.5695320000000  0.5517960000000 1.0
C      1  0.5174720000000  0.4304680000000  0.4482040000000 1.0
C      1  0.4304680000000  0.5517960000000  0.4825280000000 1.0
C      1  0.5695320000000  0.4482040000000  0.4825280000000 1.0
C      1  0.5695320000000  0.5517960000000  0.5174720000000 1.0
C      1  0.5733140000000  0.5157180000000  0.4745570000000 1.0
C      1  0.5157180000000  0.4745570000000  0.5733140000000 1.0
C      1  0.4745570000000  0.5733140000000  0.5157180000000 1.0
C      1  0.5733140000000  0.4842820000000  0.5254430000000 1.0
C      1  0.4266860000000  0.5157180000000  0.5254430000000 1.0
C      1  0.4266860000000  0.4842820000000  0.4745570000000 1.0
C      1  0.5157180000000  0.5254430000000  0.4266860000000 1.0
C      1  0.4842820000000  0.4745570000000  0.4266860000000 1.0
C      1  0.4842820000000  0.5254430000000  0.5733140000000 1.0
C      1  0.4745570000000  0.4266860000000  0.4842820000000 1.0
C      1  0.5254430000000  0.5733140000000  0.4842820000000 1.0
C      1  0.5254430000000  0.4266860000000  0.5157180000000 1.0
C      1  0.4266860000000  0.5157180000000  0.4745570000000 1.0
C      1  0.4842820000000  0.4745570000000  0.5733140000000 1.0
C      1  0.5254430000000  0.5733140000000  0.5157180000000 1.0
C      1  0.4266860000000  0.4842820000000  0.5254430000000 1.0
C      1  0.5733140000000  0.5157180000000  0.5254430000000 1.0
C      1  0.5733140000000  0.4842820000000  0.4745570000000 1.0
C      1  0.4842820000000  0.5254430000000  0.4266860000000 1.0
C      1  0.5157180000000  0.4745570000000  0.4266860000000 1.0
C      1  0.5157180000000  0.5254430000000  0.5733140000000 1.0
C      1  0.5254430000000  0.4266860000000  0.4842820000000 1.0
C      1  0.4745570000000  0.5733140000000  0.4842820000000 1.0
C      1  0.4745570000000  0.4266860000000  0.5157180000000 1.0
C      1  0.4777920000000  0.5540790000000  0.4295330000000 1.0
C      1  0.5540790000000  0.4295330000000  0.4777920000000 1.0
C      1  0.4295330000000  0.4777920000000  0.5540790000000 1.0
C      1  0.4777920000000  0.4459210000000  0.5704670000000 1.0
C      1  0.5222080000000  0.5540790000000  0.5704670000000 1.0
C      1  0.5222080000000  0.4459210000000  0.4295330000000 1.0
C      1  0.5540790000000  0.5704670000000  0.5222080000000 1.0
C      1  0.4459210000000  0.4295330000000  0.5222080000000 1.0
C      1  0.4459210000000  0.5704670000000  0.4777920000000 1.0
C      1  0.4295330000000  0.5222080000000  0.4459210000000 1.0
C      1  0.5704670000000  0.4777920000000  0.4459210000000 1.0
C      1  0.5704670000000  0.5222080000000  0.5540790000000 1.0
C      1  0.5222080000000  0.5540790000000  0.4295330000000 1.0
C      1  0.4459210000000  0.4295330000000  0.4777920000000 1.0
C      1  0.5704670000000  0.4777920000000  0.5540790000000 1.0
C      1  0.5222080000000  0.4459210000000  0.5704670000000 1.0
C      1  0.4777920000000  0.5540790000000  0.5704670000000 1.0
C      1  0.4777920000000  0.4459210000000  0.4295330000000 1.0
C      1  0.4459210000000  0.5704670000000  0.5222080000000 1.0
C      1  0.5540790000000  0.4295330000000  0.5222080000000 1.0
C      1  0.5540790000000  0.5704670000000  0.4777920000000 1.0
C      1  0.5704670000000  0.5222080000000  0.4459210000000 1.0
C      1  0.4295330000000  0.4777920000000  0.4459210000000 1.0
C      1  0.4295330000000  0.5222080000000  0.5540790000000 1.0
C      1  0.5384700000000  0.5415750000000  0.5574820000000 1.0
C      1  0.5415750000000  0.5574820000000  0.5384700000000 1.0
C      1  0.5574820000000  0.5384700000000  0.5415750000000 1.0
C      1  0.5384700000000  0.4584250000000  0.4425180000000 1.0
C      1  0.4615300000000  0.5415750000000  0.4425180000000 1.0
C      1  0.4615300000000  0.4584250000000  0.5574820000000 1.0
C      1  0.5415750000000  0.4425180000000  0.4615300000000 1.0
C      1  0.4584250000000  0.5574820000000  0.4615300000000 1.0
C      1  0.4584250000000  0.4425180000000  0.5384700000000 1.0
C      1  0.5574820000000  0.4615300000000  0.4584250000000 1.0
C      1  0.4425180000000  0.5384700000000  0.4584250000000 1.0
C      1  0.4425180000000  0.4615300000000  0.5415750000000 1.0
C      1  0.4615300000000  0.5415750000000  0.5574820000000 1.0
C      1  0.4584250000000  0.5574820000000  0.5384700000000 1.0
C      1  0.4425180000000  0.5384700000000  0.5415750000000 1.0
C      1  0.4615300000000  0.4584250000000  0.4425180000000 1.0
C      1  0.5384700000000  0.5415750000000  0.4425180000000 1.0
C      1  0.5384700000000  0.4584250000000  0.5574820000000 1.0
C      1  0.4584250000000  0.4425180000000  0.4615300000000 1.0
C      1  0.5415750000000  0.5574820000000  0.4615300000000 1.0
C      1  0.5415750000000  0.4425180000000  0.5384700000000 1.0
C      1  0.4425180000000  0.4615300000000  0.4584250000000 1.0
C      1  0.5574820000000  0.5384700000000  0.4584250000000 1.0
C      1  0.5574820000000  0.4615300000000  0.5415750000000 1.0
C      1  0.5323150000000  0.5072150000000  0.5853710000000 1.0
C      1  0.5072150000000  0.5853710000000  0.5323150000000 1.0
C      1  0.5853710000000  0.5323150000000  0.5072150000000 1.0
C      1  0.5323150000000  0.4927850000000  0.4146290000000 1.0
C      1  0.4676850000000  0.5072150000000  0.4146290000000 1.0
C      1  0.4676850000000  0.4927850000000  0.5853710000000 1.0
C      1  0.5072150000000  0.4146290000000  0.4676850000000 1.0
C      1  0.4927850000000  0.5853710000000  0.4676850000000 1.0
C      1  0.4927850000000  0.4146290000000  0.5323150000000 1.0
C      1  0.5853710000000  0.4676850000000  0.4927850000000 1.0
C      1  0.4146290000000  0.5323150000000  0.4927850000000 1.0
C      1  0.4146290000000  0.4676850000000  0.5072150000000 1.0
C      1  0.4676850000000  0.5072150000000  0.5853710000000 1.0
C      1  0.4927850000000  0.5853710000000  0.5323150000000 1.0
C      1  0.4146290000000  0.5323150000000  0.5072150000000 1.0
C      1  0.4676850000000  0.4927850000000  0.4146290000000 1.0
C      1  0.5323150000000  0.5072150000000  0.4146290000000 1.0
C      1  0.5323150000000  0.4927850000000  0.5853710000000 1.0
C      1  0.4927850000000  0.4146290000000  0.4676850000000 1.0
C      1  0.5072150000000  0.5853710000000  0.4676850000000 1.0
C      1  0.5072150000000  0.4146290000000  0.5323150000000 1.0
C      1  0.4146290000000  0.4676850000000  0.4927850000000 1.0
C      1  0.5853710000000  0.5323150000000  0.4927850000000 1.0
C      1  0.5853710000000  0.4676850000000  0.5072150000000 1.0
C      1  0.5448150000000  0.4541810000000  0.4918820000000 1.0
C      1  0.4541810000000  0.4918820000000  0.5448150000000 1.0
C      1  0.4918820000000  0.5448150000000  0.4541810000000 1.0
C      1  0.5448150000000  0.5458190000000  0.5081180000000 1.0
C      1  0.4551850000000  0.4541810000000  0.5081180000000 1.0
C      1  0.4551850000000  0.5458190000000  0.4918820000000 1.0
C      1  0.4541810000000  0.5081180000000  0.4551850000000 1.0
C      1  0.5458190000000  0.4918820000000  0.4551850000000 1.0
C      1  0.5458190000000  0.5081180000000  0.5448150000000 1.0
C      1  0.4918820000000  0.4551850000000  0.5458190000000 1.0
C      1  0.5081180000000  0.5448150000000  0.5458190000000 1.0
C      1  0.5081180000000  0.4551850000000  0.4541810000000 1.0
C      1  0.4551850000000  0.4541810000000  0.4918820000000 1.0
C      1  0.5458190000000  0.4918820000000  0.5448150000000 1.0
C      1  0.5081180000000  0.5448150000000  0.4541810000000 1.0
C      1  0.4551850000000  0.5458190000000  0.5081180000000 1.0
C      1  0.5448150000000  0.4541810000000  0.5081180000000 1.0
C      1  0.5448150000000  0.5458190000000  0.4918820000000 1.0
C      1  0.5458190000000  0.5081180000000  0.4551850000000 1.0
C      1  0.4541810000000  0.4918820000000  0.4551850000000 1.0
C      1  0.4541810000000  0.5081180000000  0.5448150000000 1.0
C      1  0.5081180000000  0.4551850000000  0.5458190000000 1.0
C      1  0.4918820000000  0.5448150000000  0.5458190000000 1.0
C      1  0.4918820000000  0.4551850000000  0.4541810000000 1.0
C      1  0.4627670000000  0.4446830000000  0.5523200000000 1.0
C      1  0.4446830000000  0.5523200000000  0.4627670000000 1.0
C      1  0.5523200000000  0.4627670000000  0.4446830000000 1.0
C      1  0.4627670000000  0.5553170000000  0.4476800000000 1.0
C      1  0.5372330000000  0.4446830000000  0.4476800000000 1.0
C      1  0.5372330000000  0.5553170000000  0.5523200000000 1.0
C      1  0.4446830000000  0.4476800000000  0.5372330000000 1.0
C      1  0.5553170000000  0.5523200000000  0.5372330000000 1.0
C      1  0.5553170000000  0.4476800000000  0.4627670000000 1.0
C      1  0.5523200000000  0.5372330000000  0.5553170000000 1.0
C      1  0.4476800000000  0.4627670000000  0.5553170000000 1.0
C      1  0.4476800000000  0.5372330000000  0.4446830000000 1.0
C      1  0.5372330000000  0.4446830000000  0.5523200000000 1.0
C      1  0.5553170000000  0.5523200000000  0.4627670000000 1.0
C      1  0.4476800000000  0.4627670000000  0.4446830000000 1.0
C      1  0.5372330000000  0.5553170000000  0.4476800000000 1.0
C      1  0.4627670000000  0.4446830000000  0.4476800000000 1.0
C      1  0.4627670000000  0.5553170000000  0.5523200000000 1.0
C      1  0.5553170000000  0.4476800000000  0.5372330000000 1.0
C      1  0.4446830000000  0.5523200000000  0.5372330000000 1.0
C      1  0.4446830000000  0.4476800000000  0.4627670000000 1.0
C      1  0.4476800000000  0.5372330000000  0.5553170000000 1.0
C      1  0.5523200000000  0.4627670000000  0.5553170000000 1.0
C      1  0.5523200000000  0.5372330000000  0.4446830000000 1.0
C      1  0.4360390000000  0.4929760000000  0.4686320000000 1.0
C      1  0.4929760000000  0.4686320000000  0.4360390000000 1.0
C      1  0.4686320000000  0.4360390000000  0.4929760000000 1.0
C      1  0.4360390000000  0.5070240000000  0.5313680000000 1.0
C      1  0.5639610000000  0.4929760000000  0.5313680000000 1.0
C      1  0.5639610000000  0.5070240000000  0.4686320000000 1.0
C      1  0.4929760000000  0.5313680000000  0.5639610000000 1.0
C      1  0.5070240000000  0.4686320000000  0.5639610000000 1.0
C      1  0.5070240000000  0.5313680000000  0.4360390000000 1.0
C      1  0.4686320000000  0.5639610000000  0.5070240000000 1.0
C      1  0.5313680000000  0.4360390000000  0.5070240000000 1.0
C      1  0.5313680000000  0.5639610000000  0.4929760000000 1.0
C      1  0.5639610000000  0.4929760000000  0.4686320000000 1.0
C      1  0.5070240000000  0.4686320000000  0.4360390000000 1.0
C      1  0.5313680000000  0.4360390000000  0.4929760000000 1.0
C      1  0.5639610000000  0.5070240000000  0.5313680000000 1.0
C      1  0.4360390000000  0.4929760000000  0.5313680000000 1.0
C      1  0.4360390000000  0.5070240000000  0.4686320000000 1.0
C      1  0.5070240000000  0.5313680000000  0.5639610000000 1.0
C      1  0.4929760000000  0.4686320000000  0.5639610000000 1.0
C      1  0.4929760000000  0.5313680000000  0.4360390000000 1.0
C      1  0.5313680000000  0.5639610000000  0.5070240000000 1.0
C      1  0.4686320000000  0.4360390000000  0.5070240000000 1.0
C      1  0.4686320000000  0.5639610000000  0.4929760000000 1.0
C      1  0.5161630000000  0.4880120000000  0.4310310000000 1.0
C      1  0.4880120000000  0.4310310000000  0.5161630000000 1.0
C      1  0.4310310000000  0.5161630000000  0.4880120000000 1.0
C      1  0.5161630000000  0.5119880000000  0.5689690000000 1.0
C      1  0.4838370000000  0.4880120000000  0.5689690000000 1.0
C      1  0.4838370000000  0.5119880000000  0.4310310000000 1.0
C      1  0.4880120000000  0.5689690000000  0.4838370000000 1.0
C      1  0.5119880000000  0.4310310000000  0.4838370000000 1.0
C      1  0.5119880000000  0.5689690000000  0.5161630000000 1.0
C      1  0.4310310000000  0.4838370000000  0.5119880000000 1.0
C      1  0.5689690000000  0.5161630000000  0.5119880000000 1.0
C      1  0.5689690000000  0.4838370000000  0.4880120000000 1.0
C      1  0.4838370000000  0.4880120000000  0.4310310000000 1.0
C      1  0.5119880000000  0.4310310000000  0.5161630000000 1.0
C      1  0.5689690000000  0.5161630000000  0.4880120000000 1.0
C      1  0.4838370000000  0.5119880000000  0.5689690000000 1.0
C      1  0.5161630000000  0.4880120000000  0.5689690000000 1.0
C      1  0.5161630000000  0.5119880000000  0.4310310000000 1.0
C      1  0.5119880000000  0.5689690000000  0.4838370000000 1.0
C      1  0.4880120000000  0.4310310000000  0.4838370000000 1.0
C      1  0.4880120000000  0.5689690000000  0.5161630000000 1.0
C      1  0.5689690000000  0.4838370000000  0.5119880000000 1.0
C      1  0.4310310000000  0.5161630000000  0.5119880000000 1.0
C      1  0.4310310000000  0.4838370000000  0.4880120000000 1.0
C      1  0.5074370000000  0.4729440000000  0.5203850000000 1.0
C      1  0.4729440000000  0.5203850000000  0.5074370000000 1.0
C      1  0.5203850000000  0.5074370000000  0.4729440000000 1.0
C      1  0.5074370000000  0.5270560000000  0.4796150000000 1.0
C      1  0.4925630000000  0.4729440000000  0.4796150000000 1.0
C      1  0.4925630000000  0.5270560000000  0.5203850000000 1.0
C      1  0.4729440000000  0.4796150000000  0.4925630000000 1.0
C      1  0.5270560000000  0.5203850000000  0.4925630000000 1.0
C      1  0.5270560000000  0.4796150000000  0.5074370000000 1.0
C      1  0.5203850000000  0.4925630000000  0.5270560000000 1.0
C      1  0.4796150000000  0.5074370000000  0.5270560000000 1.0
C      1  0.4796150000000  0.4925630000000  0.4729440000000 1.0
C      1  0.4925630000000  0.4729440000000  0.5203850000000 1.0
C      1  0.5270560000000  0.5203850000000  0.5074370000000 1.0
C      1  0.4796150000000  0.5074370000000  0.4729440000000 1.0
C      1  0.4925630000000  0.5270560000000  0.4796150000000 1.0
C      1  0.5074370000000  0.4729440000000  0.4796150000000 1.0
C      1  0.5074370000000  0.5270560000000  0.5203850000000 1.0
C      1  0.5270560000000  0.4796150000000  0.4925630000000 1.0
C      1  0.4729440000000  0.5203850000000  0.4925630000000 1.0
C      1  0.4729440000000  0.4796150000000  0.5074370000000 1.0
C      1  0.4796150000000  0.4925630000000  0.5270560000000 1.0
C      1  0.5203850000000  0.5074370000000  0.5270560000000 1.0
C      1  0.5203850000000  0.4925630000000  0.4729440000000 1.0
END
