TITL C-1887010-575-18 -3.95256570822715e-07 1000000 -4068.40121885001 0 0 580 (C1) n - 1
REM
REM in /nfs/bkarasulu/CARBON/AIRSS/Generating-Clusters/GAP-ML-2020/Higher-Symm/Selected-Sizes/TryA-Only_Ih-Symm/Larger-Clusters
REM
REM
REM
REM
REM
REM ./C.cell (2cf5181f0f1d4d5b12b972d32ad12063)
REM
REM compiler GCC version 9.2.1 20190827 (Red Hat 9.2.1-1)
REM options -cpp -mtune=generic -march=x86-64 -g -O0 -fpre-include=/usr/include/finclude/math-vector-fortran.h
REM seed -150382732 -1055260549 573869711 427048273 -986896144 -1661806651 734649641 -1383967476 213349542 991366128 -1644679350 1450013576 479440606 -684489256 449417707 -814214777 1483818574 -1717801414 257137527 -1409176067 -1386564618 -670087460 -83975880 1393946826 1820246889 1515490089 -236593562 202555981 -2098253183 -631399616 561038096 -178474202 1504934358
REM
CELL 1.54180  100.00000  100.00000  100.00000   90.00000   90.00000   90.00000
LATT -1
SFAC C  
C      1  0.4961560000000  0.4858050000000  0.5242880000000 1.0
C      1  0.4858540000000  0.5348340000000  0.4964450000000 1.0
C      1  0.5275860000000  0.4951690000000  0.4905430000000 1.0
C      1  0.4926030000000  0.5121650000000  0.4763160000000 1.0
C      1  0.5041910000000  0.4819300000000  0.4706670000000 1.0
C      1  0.5052110000000  0.5108700000000  0.5238370000000 1.0
C      1  0.4853010000000  0.4758660000000  0.5045530000000 1.0
C      1  0.5073980000000  0.5275300000000  0.5030220000000 1.0
C      1  0.5127220000000  0.4760670000000  0.4931920000000 1.0
C      1  0.5294060000000  0.5050360000000  0.5183560000000 1.0
C      1  0.4772980000000  0.4999940000000  0.5059910000000 1.0
C      1  0.4704310000000  0.5047620000000  0.4821550000000 1.0
C      1  0.4969050000000  0.5273000000000  0.4926000000000 1.0
C      1  0.4939850000000  0.5001450000000  0.5225850000000 1.0
C      1  0.5356710000000  0.4870690000000  0.4977040000000 1.0
C      1  0.4948450000000  0.4756580000000  0.5143000000000 1.0
C      1  0.5047970000000  0.4702920000000  0.4824660000000 1.0
C      1  0.5035390000000  0.5348920000000  0.5141510000000 1.0
C      1  0.4817870000000  0.5045390000000  0.4707380000000 1.0
C      1  0.5179170000000  0.5050210000000  0.5294800000000 1.0
C      1  0.5108390000000  0.4933350000000  0.4761390000000 1.0
C      1  0.5239590000000  0.5129840000000  0.5076370000000 1.0
C      1  0.4761260000000  0.5107110000000  0.4948260000000 1.0
C      1  0.4751870000000  0.4857880000000  0.5036130000000 1.0
C      1  0.4587270000000  0.4805500000000  0.5305190000000 1.0
C      1  0.4802060000000  0.5316640000000  0.4580210000000 1.0
C      1  0.5315350000000  0.4580030000000  0.4804060000000 1.0
C      1  0.4581000000000  0.5201720000000  0.4687280000000 1.0
C      1  0.5419290000000  0.4804450000000  0.4687700000000 1.0
C      1  0.5419010000000  0.5202990000000  0.5314740000000 1.0
C      1  0.4807790000000  0.4684510000000  0.5413550000000 1.0
C      1  0.5199190000000  0.5318540000000  0.5418940000000 1.0
C      1  0.5199030000000  0.4685720000000  0.4584680000000 1.0
C      1  0.5316730000000  0.5424700000000  0.5197200000000 1.0
C      1  0.4687060000000  0.4577790000000  0.5193350000000 1.0
C      1  0.4687320000000  0.5422240000000  0.4799830000000 1.0
C      1  0.4581050000000  0.5317120000000  0.4801170000000 1.0
C      1  0.4805880000000  0.4578020000000  0.5309390000000 1.0
C      1  0.5313310000000  0.4803480000000  0.4583730000000 1.0
C      1  0.4583610000000  0.4684830000000  0.5191880000000 1.0
C      1  0.5417820000000  0.4688860000000  0.4804050000000 1.0
C      1  0.5422120000000  0.5319280000000  0.5198430000000 1.0
C      1  0.4803050000000  0.5422810000000  0.4684490000000 1.0
C      1  0.5200610000000  0.5423530000000  0.5312610000000 1.0
C      1  0.5200270000000  0.4580410000000  0.4688780000000 1.0
C      1  0.5313730000000  0.5203070000000  0.5418640000000 1.0
C      1  0.4685530000000  0.5201010000000  0.4582800000000 1.0
C      1  0.4693810000000  0.4805510000000  0.5410830000000 1.0
C      1  0.5194760000000  0.4151810000000  0.4907740000000 1.0
C      1  0.4157270000000  0.4908820000000  0.5191120000000 1.0
C      1  0.4906940000000  0.5191200000000  0.4155960000000 1.0
C      1  0.5193680000000  0.5851700000000  0.5092640000000 1.0
C      1  0.4806050000000  0.4151060000000  0.5089010000000 1.0
C      1  0.4803860000000  0.5849320000000  0.4908700000000 1.0
C      1  0.4157140000000  0.5090170000000  0.4806250000000 1.0
C      1  0.5847600000000  0.4907680000000  0.4808200000000 1.0
C      1  0.5843240000000  0.5089790000000  0.5196080000000 1.0
C      1  0.4910180000000  0.4805080000000  0.5841680000000 1.0
C      1  0.5090990000000  0.5193300000000  0.5844050000000 1.0
C      1  0.5088470000000  0.4804140000000  0.4160340000000 1.0
C      1  0.5191290000000  0.4906810000000  0.4157450000000 1.0
C      1  0.4154910000000  0.5193880000000  0.4908500000000 1.0
C      1  0.4909430000000  0.4150850000000  0.5191460000000 1.0
C      1  0.5193150000000  0.5089570000000  0.5841450000000 1.0
C      1  0.4804510000000  0.5088060000000  0.4159480000000 1.0
C      1  0.4808230000000  0.4908570000000  0.5840950000000 1.0
C      1  0.4155920000000  0.4805190000000  0.5089200000000 1.0
C      1  0.5845550000000  0.4804660000000  0.4910740000000 1.0
C      1  0.5846920000000  0.5193370000000  0.5093730000000 1.0
C      1  0.4906860000000  0.5850970000000  0.4805830000000 1.0
C      1  0.5090730000000  0.5849850000000  0.5195580000000 1.0
C      1  0.5090930000000  0.4154880000000  0.4805440000000 1.0
C      1  0.4845550000000  0.5050730000000  0.5640080000000 1.0
C      1  0.5049400000000  0.5652170000000  0.4842930000000 1.0
C      1  0.5645590000000  0.4839650000000  0.5052660000000 1.0
C      1  0.4837880000000  0.4945670000000  0.4360310000000 1.0
C      1  0.5153090000000  0.5047490000000  0.4358390000000 1.0
C      1  0.5159810000000  0.4947810000000  0.5640690000000 1.0
C      1  0.5051640000000  0.4350590000000  0.5155880000000 1.0
C      1  0.4949160000000  0.5650660000000  0.5158990000000 1.0
C      1  0.4947100000000  0.4354070000000  0.4839740000000 1.0
C      1  0.5646870000000  0.5156490000000  0.4952760000000 1.0
C      1  0.4355600000000  0.4838930000000  0.4945480000000 1.0
C      1  0.4356660000000  0.5159390000000  0.5049110000000 1.0
C      1  0.4840870000000  0.5650400000000  0.5050600000000 1.0
C      1  0.5053540000000  0.4839590000000  0.5641200000000 1.0
C      1  0.5648240000000  0.5049360000000  0.4845330000000 1.0
C      1  0.4839380000000  0.4351530000000  0.4946020000000 1.0
C      1  0.5159300000000  0.4351690000000  0.5050450000000 1.0
C      1  0.5157100000000  0.5652640000000  0.4950700000000 1.0
C      1  0.5046630000000  0.5154180000000  0.4357300000000 1.0
C      1  0.4950750000000  0.5159220000000  0.5641910000000 1.0
C      1  0.4945440000000  0.4837930000000  0.4360680000000 1.0
C      1  0.5642850000000  0.4947540000000  0.5160410000000 1.0
C      1  0.4356830000000  0.4947030000000  0.4839310000000 1.0
C      1  0.4358150000000  0.5051140000000  0.5154400000000 1.0
C      1  0.5275690000000  0.5508510000000  0.4393850000000 1.0
C      1  0.5517340000000  0.4382310000000  0.5280500000000 1.0
C      1  0.4391790000000  0.5281490000000  0.5509760000000 1.0
C      1  0.5282280000000  0.4480970000000  0.5612980000000 1.0
C      1  0.4719020000000  0.5517050000000  0.5615060000000 1.0
C      1  0.4713360000000  0.4475470000000  0.4379670000000 1.0
C      1  0.5510640000000  0.5609950000000  0.4723050000000 1.0
C      1  0.4478720000000  0.4379190000000  0.4716550000000 1.0
C      1  0.4479640000000  0.5618450000000  0.5283100000000 1.0
C      1  0.4378290000000  0.4712940000000  0.4478190000000 1.0
C      1  0.5605430000000  0.5278060000000  0.4493130000000 1.0
C      1  0.5619490000000  0.4713230000000  0.5521490000000 1.0
C      1  0.5282640000000  0.4383560000000  0.5514000000000 1.0
C      1  0.5506640000000  0.5276740000000  0.4396030000000 1.0
C      1  0.4384390000000  0.5517130000000  0.5280500000000 1.0
C      1  0.5277030000000  0.5608290000000  0.4490150000000 1.0
C      1  0.4716310000000  0.5618450000000  0.5519880000000 1.0
C      1  0.4713690000000  0.4377200000000  0.4478240000000 1.0
C      1  0.5520190000000  0.4713450000000  0.5618870000000 1.0
C      1  0.4476370000000  0.4712540000000  0.4379500000000 1.0
C      1  0.4489740000000  0.5281430000000  0.5607590000000 1.0
C      1  0.4380410000000  0.4477580000000  0.4716220000000 1.0
C      1  0.5617630000000  0.4478530000000  0.5283800000000 1.0
C      1  0.5607800000000  0.5510870000000  0.4724810000000 1.0
C      1  0.4441220000000  0.5358460000000  0.4747150000000 1.0
C      1  0.5355870000000  0.4747210000000  0.4444900000000 1.0
C      1  0.4749770000000  0.4440070000000  0.5355530000000 1.0
C      1  0.4445670000000  0.4642420000000  0.5248530000000 1.0
C      1  0.5560720000000  0.5359560000000  0.5255450000000 1.0
C      1  0.5555730000000  0.4641720000000  0.4753020000000 1.0
C      1  0.5358290000000  0.5249470000000  0.5556210000000 1.0
C      1  0.4645880000000  0.4751200000000  0.5550200000000 1.0
C      1  0.4640240000000  0.5247940000000  0.4445590000000 1.0
C      1  0.4746160000000  0.5561850000000  0.4641450000000 1.0
C      1  0.5248050000000  0.4443480000000  0.4643170000000 1.0
C      1  0.5249810000000  0.5560870000000  0.5359850000000 1.0
C      1  0.4447770000000  0.4751170000000  0.5353360000000 1.0
C      1  0.5357720000000  0.4440850000000  0.4748500000000 1.0
C      1  0.4745520000000  0.5357600000000  0.4441580000000 1.0
C      1  0.4443690000000  0.5248520000000  0.4642090000000 1.0
C      1  0.5556380000000  0.5249530000000  0.5360240000000 1.0
C      1  0.5558160000000  0.4747580000000  0.4644110000000 1.0
C      1  0.5359080000000  0.5563660000000  0.5254330000000 1.0
C      1  0.4640330000000  0.5559550000000  0.4750360000000 1.0
C      1  0.4642250000000  0.4439690000000  0.5249580000000 1.0
C      1  0.4750680000000  0.4642490000000  0.5551890000000 1.0
C      1  0.5247120000000  0.4641080000000  0.4447690000000 1.0
C      1  0.5253080000000  0.5359300000000  0.5558860000000 1.0
C      1  0.4452270000000  0.5141710000000  0.4350840000000 1.0
C      1  0.5142560000000  0.4348550000000  0.4454520000000 1.0
C      1  0.4350000000000  0.4453180000000  0.5143710000000 1.0
C      1  0.4455850000000  0.4854770000000  0.5647460000000 1.0
C      1  0.5545910000000  0.5142660000000  0.5651420000000 1.0
C      1  0.5544820000000  0.4851230000000  0.4350680000000 1.0
C      1  0.5145570000000  0.5652600000000  0.5549530000000 1.0
C      1  0.4855120000000  0.4348460000000  0.5544930000000 1.0
C      1  0.4850340000000  0.5652080000000  0.4451810000000 1.0
C      1  0.4347710000000  0.5546630000000  0.4853880000000 1.0
C      1  0.5650290000000  0.4451750000000  0.4855430000000 1.0
C      1  0.5652720000000  0.5547920000000  0.5150270000000 1.0
C      1  0.4452790000000  0.4347540000000  0.5143970000000 1.0
C      1  0.5142230000000  0.4452680000000  0.4351500000000 1.0
C      1  0.4348450000000  0.5142080000000  0.4454200000000 1.0
C      1  0.4450580000000  0.5652060000000  0.4853980000000 1.0
C      1  0.5548540000000  0.5653130000000  0.5149760000000 1.0
C      1  0.5546140000000  0.4347720000000  0.4854840000000 1.0
C      1  0.5145750000000  0.5547000000000  0.5652310000000 1.0
C      1  0.4850220000000  0.5546060000000  0.4348520000000 1.0
C      1  0.4855000000000  0.4453440000000  0.5648470000000 1.0
C      1  0.4351480000000  0.4854850000000  0.5543540000000 1.0
C      1  0.5650100000000  0.4851490000000  0.4454450000000 1.0
C      1  0.5649980000000  0.5142630000000  0.5548150000000 1.0
C      1  0.4941370000000  0.4271340000000  0.5455210000000 1.0
C      1  0.4271470000000  0.5456230000000  0.4939450000000 1.0
C      1  0.5452560000000  0.4937840000000  0.4277440000000 1.0
C      1  0.4937600000000  0.5728210000000  0.4542660000000 1.0
C      1  0.5057160000000  0.4270160000000  0.4542900000000 1.0
C      1  0.5058950000000  0.5730640000000  0.5459990000000 1.0
C      1  0.4271900000000  0.4541840000000  0.5058210000000 1.0
C      1  0.5727110000000  0.5455910000000  0.5063690000000 1.0
C      1  0.5728860000000  0.4540500000000  0.4941680000000 1.0
C      1  0.5456310000000  0.5056620000000  0.5727830000000 1.0
C      1  0.4546470000000  0.4941390000000  0.5722050000000 1.0
C      1  0.4541340000000  0.5055830000000  0.4273410000000 1.0
C      1  0.4936910000000  0.5453540000000  0.4275160000000 1.0
C      1  0.4276690000000  0.4941620000000  0.5453100000000 1.0
C      1  0.5456560000000  0.4269760000000  0.4939570000000 1.0
C      1  0.4941070000000  0.4542480000000  0.5725400000000 1.0
C      1  0.5056550000000  0.4541360000000  0.4273670000000 1.0
C      1  0.5060150000000  0.5456170000000  0.5728110000000 1.0
C      1  0.4271000000000  0.5056570000000  0.4543210000000 1.0
C      1  0.5727340000000  0.5056660000000  0.5458770000000 1.0
C      1  0.5725020000000  0.4938810000000  0.4545650000000 1.0
C      1  0.5457570000000  0.5729320000000  0.5062450000000 1.0
C      1  0.4539940000000  0.5730270000000  0.4940460000000 1.0
C      1  0.4541270000000  0.4268470000000  0.5058240000000 1.0
C      1  0.4782890000000  0.4511740000000  0.4262210000000 1.0
C      1  0.4513700000000  0.4260470000000  0.4784560000000 1.0
C      1  0.4260870000000  0.4782700000000  0.4513760000000 1.0
C      1  0.4786970000000  0.5482700000000  0.5733640000000 1.0
C      1  0.5214050000000  0.4514410000000  0.5731890000000 1.0
C      1  0.5208880000000  0.5477190000000  0.4274290000000 1.0
C      1  0.4513200000000  0.5737950000000  0.5215220000000 1.0
C      1  0.5483860000000  0.4263470000000  0.5212690000000 1.0
C      1  0.5479850000000  0.5730360000000  0.4789210000000 1.0
C      1  0.4272270000000  0.5214020000000  0.5479290000000 1.0
C      1  0.5737330000000  0.4782760000000  0.5486690000000 1.0
C      1  0.5725680000000  0.5211480000000  0.4523060000000 1.0
C      1  0.4783320000000  0.4259620000000  0.4513560000000 1.0
C      1  0.4512400000000  0.4782180000000  0.4262100000000 1.0
C      1  0.4262180000000  0.4513110000000  0.4784780000000 1.0
C      1  0.4784100000000  0.5738030000000  0.5486380000000 1.0
C      1  0.5210820000000  0.5728930000000  0.4520180000000 1.0
C      1  0.5214230000000  0.4265220000000  0.5480970000000 1.0
C      1  0.4520400000000  0.5213650000000  0.5726850000000 1.0
C      1  0.5476350000000  0.5209590000000  0.4276430000000 1.0
C      1  0.5484750000000  0.4782740000000  0.5736530000000 1.0
C      1  0.4265650000000  0.5483020000000  0.5212710000000 1.0
C      1  0.5727750000000  0.5479710000000  0.4791370000000 1.0
C      1  0.5736770000000  0.4512940000000  0.5215990000000 1.0
C      1  0.4204270000000  0.4836750000000  0.4733770000000 1.0
C      1  0.4836160000000  0.4732900000000  0.4207450000000 1.0
C      1  0.4734480000000  0.4200710000000  0.4836220000000 1.0
C      1  0.4211230000000  0.5160600000000  0.5263040000000 1.0
C      1  0.5794110000000  0.4836440000000  0.5266140000000 1.0
C      1  0.5791960000000  0.5160930000000  0.4738410000000 1.0
C      1  0.4839100000000  0.5263320000000  0.5790390000000 1.0
C      1  0.5162150000000  0.4733820000000  0.5791670000000 1.0
C      1  0.5158360000000  0.5260930000000  0.4212570000000 1.0
C      1  0.4734160000000  0.5798730000000  0.5162640000000 1.0
C      1  0.5265180000000  0.4203020000000  0.5160560000000 1.0
C      1  0.5263180000000  0.5797290000000  0.4838770000000 1.0
C      1  0.4203680000000  0.4734090000000  0.4836540000000 1.0
C      1  0.4837130000000  0.4201850000000  0.4733480000000 1.0
C      1  0.4733330000000  0.4835650000000  0.4207210000000 1.0
C      1  0.4208420000000  0.5263740000000  0.5160610000000 1.0
C      1  0.5792030000000  0.5263080000000  0.4841350000000 1.0
C      1  0.5794820000000  0.4733610000000  0.5163380000000 1.0
C      1  0.4836800000000  0.5798890000000  0.5265390000000 1.0
C      1  0.5160750000000  0.5796930000000  0.4736320000000 1.0
C      1  0.5162390000000  0.4203820000000  0.5263190000000 1.0
C      1  0.4736700000000  0.5160140000000  0.5787260000000 1.0
C      1  0.5261030000000  0.5158180000000  0.4213360000000 1.0
C      1  0.5264950000000  0.4836530000000  0.5792230000000 1.0
C      1  0.4696360000000  0.4583910000000  0.4924570000000 1.0
C      1  0.4582870000000  0.4917740000000  0.4692460000000 1.0
C      1  0.4915520000000  0.4687840000000  0.4587860000000 1.0
C      1  0.4691700000000  0.5418580000000  0.5077340000000 1.0
C      1  0.5299830000000  0.4589820000000  0.5068800000000 1.0
C      1  0.5292020000000  0.5405400000000  0.4931340000000 1.0
C      1  0.4605810000000  0.5074140000000  0.5281610000000 1.0
C      1  0.5413380000000  0.4918120000000  0.5307480000000 1.0
C      1  0.5397030000000  0.5071790000000  0.4716620000000 1.0
C      1  0.4933310000000  0.5305470000000  0.5407200000000 1.0
C      1  0.5077200000000  0.4698360000000  0.5402170000000 1.0
C      1  0.5065640000000  0.5287440000000  0.4602530000000 1.0
C      1  0.4689480000000  0.4916440000000  0.4586500000000 1.0
C      1  0.4587530000000  0.4694450000000  0.4922340000000 1.0
C      1  0.4917340000000  0.4581450000000  0.4694600000000 1.0
C      1  0.4717580000000  0.5074320000000  0.5393010000000 1.0
C      1  0.5283390000000  0.5067970000000  0.4608720000000 1.0
C      1  0.5307120000000  0.4919260000000  0.5413690000000 1.0
C      1  0.4592270000000  0.5304910000000  0.5066430000000 1.0
C      1  0.5400700000000  0.5293050000000  0.4935130000000 1.0
C      1  0.5411780000000  0.4690880000000  0.5080790000000 1.0
C      1  0.4922330000000  0.5419170000000  0.5307910000000 1.0
C      1  0.5068770000000  0.5402180000000  0.4709030000000 1.0
C      1  0.5076420000000  0.4591120000000  0.5287990000000 1.0
C      1  0.4728640000000  0.4624790000000  0.4186650000000 1.0
C      1  0.4625730000000  0.4182890000000  0.4729430000000 1.0
C      1  0.4185070000000  0.4728370000000  0.4626240000000 1.0
C      1  0.4732240000000  0.5370640000000  0.5810750000000 1.0
C      1  0.5268590000000  0.4625310000000  0.5811220000000 1.0
C      1  0.5264710000000  0.5368280000000  0.4193780000000 1.0
C      1  0.4625650000000  0.5814190000000  0.5270350000000 1.0
C      1  0.5372890000000  0.4184960000000  0.5267760000000 1.0
C      1  0.5371150000000  0.5810900000000  0.4732360000000 1.0
C      1  0.4190580000000  0.5267620000000  0.5370570000000 1.0
C      1  0.5813520000000  0.4728620000000  0.5374120000000 1.0
C      1  0.5807590000000  0.5267490000000  0.4631030000000 1.0
C      1  0.4728850000000  0.4183430000000  0.4625750000000 1.0
C      1  0.4625400000000  0.4728010000000  0.4186460000000 1.0
C      1  0.4184820000000  0.4625360000000  0.4729950000000 1.0
C      1  0.4729020000000  0.5814210000000  0.5373820000000 1.0
C      1  0.5267360000000  0.5810350000000  0.4628390000000 1.0
C      1  0.5269130000000  0.4185550000000  0.5371050000000 1.0
C      1  0.4629200000000  0.5267140000000  0.5808420000000 1.0
C      1  0.5368320000000  0.5264810000000  0.4194570000000 1.0
C      1  0.5372250000000  0.4728350000000  0.5812200000000 1.0
C      1  0.4188360000000  0.5371120000000  0.5267460000000 1.0
C      1  0.5808300000000  0.5371020000000  0.4735010000000 1.0
C      1  0.5813420000000  0.4625370000000  0.5270750000000 1.0
C      1  0.4711020000000  0.5184290000000  0.5503860000000 1.0
C      1  0.5178860000000  0.5511200000000  0.4709500000000 1.0
C      1  0.5518410000000  0.4696890000000  0.5188030000000 1.0
C      1  0.4694470000000  0.4808110000000  0.4481060000000 1.0
C      1  0.5286810000000  0.5177810000000  0.4498560000000 1.0
C      1  0.5302300000000  0.4811290000000  0.5517190000000 1.0
C      1  0.5186180000000  0.4484720000000  0.5292880000000 1.0
C      1  0.4813450000000  0.5522780000000  0.5300760000000 1.0
C      1  0.4809820000000  0.4476910000000  0.4697270000000 1.0
C      1  0.5506890000000  0.5291650000000  0.4823790000000 1.0
C      1  0.4481510000000  0.4697190000000  0.4810480000000 1.0
C      1  0.4489740000000  0.5298550000000  0.5179600000000 1.0
C      1  0.4698830000000  0.5522530000000  0.5186080000000 1.0
C      1  0.5187500000000  0.4699670000000  0.5512060000000 1.0
C      1  0.5506540000000  0.5180200000000  0.4712620000000 1.0
C      1  0.4698420000000  0.4479060000000  0.4811470000000 1.0
C      1  0.5297410000000  0.4485530000000  0.5181770000000 1.0
C      1  0.5291150000000  0.5512620000000  0.4821190000000 1.0
C      1  0.5176470000000  0.5289030000000  0.4496570000000 1.0
C      1  0.4819950000000  0.5298660000000  0.5509520000000 1.0
C      1  0.4808500000000  0.4693490000000  0.4481260000000 1.0
C      1  0.5519450000000  0.4810660000000  0.5302700000000 1.0
C      1  0.4479100000000  0.4809240000000  0.4696620000000 1.0
C      1  0.4495160000000  0.5184260000000  0.5288490000000 1.0
C      1  0.5610600000000  0.5492760000000  0.5282410000000 1.0
C      1  0.5490910000000  0.5274740000000  0.5609170000000 1.0
C      1  0.5277480000000  0.5609800000000  0.5493890000000 1.0
C      1  0.5606080000000  0.4507990000000  0.4724260000000 1.0
C      1  0.4389930000000  0.5491180000000  0.4721740000000 1.0
C      1  0.4393960000000  0.4509160000000  0.5275100000000 1.0
C      1  0.5489000000000  0.4719860000000  0.4393870000000 1.0
C      1  0.4507400000000  0.5273660000000  0.4393400000000 1.0
C      1  0.4512780000000  0.4724380000000  0.5602780000000 1.0
C      1  0.5274060000000  0.4391580000000  0.4510390000000 1.0
C      1  0.4718300000000  0.5609650000000  0.4507490000000 1.0
C      1  0.4723240000000  0.4391290000000  0.5489370000000 1.0
C      1  0.5607870000000  0.5274890000000  0.5493350000000 1.0
C      1  0.5493180000000  0.5611140000000  0.5282140000000 1.0
C      1  0.5278140000000  0.5491920000000  0.5610400000000 1.0
C      1  0.5607200000000  0.4719780000000  0.4510350000000 1.0
C      1  0.4395860000000  0.4724370000000  0.5486500000000 1.0
C      1  0.4391040000000  0.5273940000000  0.4509470000000 1.0
C      1  0.5490560000000  0.4390430000000  0.4722860000000 1.0
C      1  0.4508630000000  0.4390750000000  0.5275780000000 1.0
C      1  0.4506450000000  0.5608790000000  0.4722320000000 1.0
C      1  0.5273640000000  0.4508440000000  0.4394960000000 1.0
C      1  0.4723790000000  0.4509520000000  0.5604290000000 1.0
C      1  0.4718370000000  0.5490740000000  0.4390940000000 1.0
C      1  0.5066410000000  0.5445390000000  0.5245570000000 1.0
C      1  0.5461390000000  0.5276460000000  0.5064260000000 1.0
C      1  0.5249440000000  0.5065280000000  0.5429850000000 1.0
C      1  0.5062820000000  0.4566820000000  0.4752980000000 1.0
C      1  0.4938080000000  0.5462430000000  0.4726600000000 1.0
C      1  0.4940950000000  0.4539200000000  0.5265480000000 1.0
C      1  0.5442030000000  0.4755500000000  0.4939700000000 1.0
C      1  0.4544080000000  0.5272700000000  0.4935260000000 1.0
C      1  0.4541500000000  0.4724820000000  0.5057160000000 1.0
C      1  0.5267970000000  0.4937780000000  0.4547690000000 1.0
C      1  0.4748530000000  0.5062260000000  0.4571080000000 1.0
C      1  0.4743580000000  0.4939570000000  0.5442950000000 1.0
C      1  0.5064790000000  0.5274160000000  0.5455620000000 1.0
C      1  0.5430500000000  0.5064540000000  0.5251150000000 1.0
C      1  0.5274180000000  0.5464590000000  0.5062380000000 1.0
C      1  0.5060640000000  0.4748140000000  0.4571380000000 1.0
C      1  0.4943160000000  0.4722920000000  0.5455150000000 1.0
C      1  0.4935790000000  0.5271420000000  0.4542890000000 1.0
C      1  0.5458830000000  0.4939920000000  0.4730070000000 1.0
C      1  0.4555250000000  0.4939530000000  0.5255620000000 1.0
C      1  0.4568880000000  0.5063890000000  0.4751100000000 1.0
C      1  0.5273020000000  0.4538650000000  0.4938100000000 1.0
C      1  0.4727340000000  0.4536630000000  0.5058720000000 1.0
C      1  0.4754400000000  0.5444670000000  0.4933640000000 1.0
C      1  0.4378840000000  0.4578160000000  0.5518830000000 1.0
C      1  0.4571620000000  0.5520410000000  0.4375250000000 1.0
C      1  0.5520760000000  0.4373790000000  0.4575830000000 1.0
C      1  0.4373470000000  0.5421210000000  0.4477570000000 1.0
C      1  0.5622230000000  0.4573350000000  0.4478330000000 1.0
C      1  0.5624450000000  0.5422240000000  0.5526170000000 1.0
C      1  0.4577140000000  0.4479010000000  0.5621300000000 1.0
C      1  0.5425190000000  0.5521520000000  0.5627300000000 1.0
C      1  0.5420660000000  0.4476160000000  0.4377560000000 1.0
C      1  0.5524020000000  0.5624430000000  0.5429170000000 1.0
C      1  0.4477690000000  0.4376040000000  0.5423000000000 1.0
C      1  0.4474260000000  0.5622770000000  0.4575090000000 1.0
C      1  0.4373030000000  0.5520750000000  0.4574700000000 1.0
C      1  0.4576180000000  0.4376230000000  0.5520860000000 1.0
C      1  0.5519630000000  0.4573450000000  0.4377300000000 1.0
C      1  0.4377270000000  0.4478900000000  0.5422030000000 1.0
C      1  0.5621880000000  0.4475930000000  0.4577060000000 1.0
C      1  0.5625360000000  0.5522050000000  0.5429440000000 1.0
C      1  0.4571470000000  0.5623270000000  0.4476080000000 1.0
C      1  0.5424760000000  0.5623590000000  0.5526160000000 1.0
C      1  0.5421350000000  0.4374370000000  0.4478580000000 1.0
C      1  0.5522500000000  0.5422100000000  0.5627020000000 1.0
C      1  0.4474750000000  0.5420850000000  0.4376090000000 1.0
C      1  0.4480290000000  0.4578220000000  0.5620040000000 1.0
C      1  0.4589390000000  0.4696520000000  0.4483200000000 1.0
C      1  0.4698040000000  0.4480660000000  0.4591580000000 1.0
C      1  0.4483940000000  0.4590640000000  0.4700040000000 1.0
C      1  0.4603250000000  0.5295000000000  0.5503480000000 1.0
C      1  0.5407490000000  0.4699540000000  0.5514070000000 1.0
C      1  0.5393730000000  0.5289010000000  0.4500840000000 1.0
C      1  0.4702350000000  0.5517090000000  0.5404980000000 1.0
C      1  0.5296810000000  0.4487670000000  0.5400590000000 1.0
C      1  0.5289800000000  0.5506000000000  0.4604190000000 1.0
C      1  0.4490840000000  0.5405330000000  0.5292250000000 1.0
C      1  0.5515150000000  0.4592440000000  0.5298800000000 1.0
C      1  0.5503000000000  0.5398320000000  0.4712830000000 1.0
C      1  0.4591850000000  0.4482610000000  0.4700620000000 1.0
C      1  0.4697210000000  0.4588370000000  0.4483450000000 1.0
C      1  0.4482040000000  0.4697200000000  0.4591280000000 1.0
C      1  0.4594500000000  0.5517020000000  0.5297080000000 1.0
C      1  0.5396920000000  0.5506950000000  0.4710660000000 1.0
C      1  0.5404810000000  0.4487400000000  0.5294170000000 1.0
C      1  0.4707210000000  0.5405330000000  0.5508570000000 1.0
C      1  0.5287430000000  0.5396200000000  0.4499480000000 1.0
C      1  0.5298170000000  0.4593910000000  0.5510120000000 1.0
C      1  0.4495840000000  0.5295020000000  0.5396230000000 1.0
C      1  0.5502350000000  0.5290940000000  0.4606760000000 1.0
C      1  0.5516100000000  0.4699030000000  0.5407670000000 1.0
C      1  0.4716220000000  0.5093950000000  0.5174950000000 1.0
C      1  0.5062730000000  0.5174690000000  0.4719060000000 1.0
C      1  0.5184800000000  0.4710500000000  0.5064310000000 1.0
C      1  0.4691370000000  0.4897460000000  0.4803330000000 1.0
C      1  0.5287530000000  0.5077730000000  0.4831350000000 1.0
C      1  0.5301450000000  0.4898830000000  0.5201430000000 1.0
C      1  0.5089580000000  0.4806320000000  0.5298730000000 1.0
C      1  0.4928480000000  0.5201120000000  0.5291560000000 1.0
C      1  0.4894180000000  0.4793990000000  0.4699430000000 1.0
C      1  0.5184490000000  0.5296160000000  0.4922030000000 1.0
C      1  0.4807580000000  0.4687820000000  0.4919120000000 1.0
C      1  0.4804270000000  0.5310990000000  0.5092310000000 1.0
C      1  0.4708030000000  0.5200330000000  0.5070860000000 1.0
C      1  0.5083970000000  0.4697790000000  0.5175010000000 1.0
C      1  0.5168980000000  0.5066920000000  0.4722890000000 1.0
C      1  0.4690820000000  0.4803850000000  0.4911690000000 1.0
C      1  0.5303220000000  0.4804780000000  0.5094160000000 1.0
C      1  0.5285270000000  0.5183600000000  0.4938580000000 1.0
C      1  0.5078150000000  0.5292590000000  0.4815940000000 1.0
C      1  0.4907290000000  0.5311530000000  0.5195360000000 1.0
C      1  0.4898160000000  0.4690480000000  0.4807530000000 1.0
C      1  0.5196650000000  0.4899930000000  0.5304700000000 1.0
C      1  0.4795790000000  0.4895920000000  0.4697780000000 1.0
C      1  0.4824390000000  0.5094410000000  0.5282660000000 1.0
C      1  0.4352580000000  0.5166780000000  0.4724240000000 1.0
C      1  0.5165430000000  0.4722850000000  0.4355830000000 1.0
C      1  0.4722810000000  0.4341570000000  0.5171270000000 1.0
C      1  0.4351020000000  0.4829190000000  0.5272650000000 1.0
C      1  0.5647960000000  0.5167480000000  0.5278040000000 1.0
C      1  0.5655770000000  0.4825430000000  0.4723850000000 1.0
C      1  0.5174260000000  0.5276150000000  0.5652480000000 1.0
C      1  0.4829650000000  0.4723500000000  0.5648710000000 1.0
C      1  0.4823470000000  0.5274790000000  0.4347140000000 1.0
C      1  0.4721240000000  0.5655980000000  0.4829310000000 1.0
C      1  0.5275850000000  0.4344590000000  0.4825890000000 1.0
C      1  0.5278670000000  0.5660570000000  0.5176020000000 1.0
C      1  0.4348780000000  0.4723600000000  0.5169650000000 1.0
C      1  0.5167030000000  0.4350840000000  0.4724560000000 1.0
C      1  0.4722110000000  0.5165860000000  0.4354110000000 1.0
C      1  0.4347150000000  0.5275660000000  0.4825730000000 1.0
C      1  0.5655660000000  0.5276950000000  0.5177250000000 1.0
C      1  0.5653020000000  0.4721950000000  0.4831220000000 1.0
C      1  0.5170660000000  0.5657160000000  0.5278920000000 1.0
C      1  0.4824430000000  0.5658940000000  0.4721560000000 1.0
C      1  0.4827390000000  0.4341870000000  0.5275020000000 1.0
C      1  0.4726860000000  0.4829220000000  0.5646850000000 1.0
C      1  0.5273670000000  0.4825040000000  0.4350230000000 1.0
C      1  0.5275780000000  0.5167340000000  0.5646780000000 1.0
C      1  0.5699570000000  0.4919910000000  0.5437330000000 1.0
C      1  0.4924290000000  0.5434870000000  0.5697250000000 1.0
C      1  0.5433410000000  0.5697600000000  0.4927150000000 1.0
C      1  0.5691690000000  0.5073740000000  0.4569420000000 1.0
C      1  0.4298690000000  0.4919660000000  0.4563390000000 1.0
C      1  0.4310270000000  0.5077180000000  0.5430920000000 1.0
C      1  0.4919550000000  0.4561600000000  0.4300610000000 1.0
C      1  0.5071500000000  0.5430190000000  0.4309750000000 1.0
C      1  0.5077310000000  0.4563290000000  0.5695150000000 1.0
C      1  0.5435280000000  0.4299310000000  0.5075700000000 1.0
C      1  0.4562300000000  0.5703230000000  0.5077310000000 1.0
C      1  0.4562680000000  0.4296480000000  0.4921580000000 1.0
C      1  0.5693480000000  0.5432600000000  0.4928890000000 1.0
C      1  0.4922120000000  0.5703530000000  0.5437480000000 1.0
C      1  0.5435720000000  0.4920010000000  0.5698910000000 1.0
C      1  0.5700610000000  0.4561990000000  0.5078450000000 1.0
C      1  0.4299220000000  0.4562500000000  0.4921390000000 1.0
C      1  0.4302060000000  0.5435030000000  0.5075410000000 1.0
C      1  0.4920220000000  0.4297210000000  0.4563370000000 1.0
C      1  0.5077160000000  0.4302220000000  0.5432710000000 1.0
C      1  0.5072900000000  0.5696370000000  0.4566680000000 1.0
C      1  0.5429240000000  0.5072360000000  0.4312430000000 1.0
C      1  0.4568810000000  0.5076910000000  0.5688510000000 1.0
C      1  0.4561900000000  0.4918920000000  0.4300560000000 1.0
C      1  0.4229290000000  0.5118840000000  0.4675490000000 1.0
C      1  0.5118270000000  0.4673820000000  0.4232260000000 1.0
C      1  0.4673610000000  0.4221010000000  0.5120470000000 1.0
C      1  0.4229590000000  0.4878980000000  0.5321950000000 1.0
C      1  0.5770740000000  0.5118730000000  0.5326850000000 1.0
C      1  0.5776860000000  0.4876200000000  0.4676230000000 1.0
C      1  0.5123600000000  0.5323800000000  0.5773920000000 1.0
C      1  0.4878410000000  0.4674590000000  0.5770770000000 1.0
C      1  0.4874240000000  0.5321970000000  0.4226120000000 1.0
C      1  0.4671650000000  0.5777690000000  0.4878630000000 1.0
C      1  0.5324690000000  0.4223260000000  0.4875670000000 1.0
C      1  0.5326230000000  0.5781310000000  0.5124620000000 1.0
C      1  0.4226890000000  0.4674410000000  0.5120890000000 1.0
C      1  0.5119400000000  0.4227770000000  0.4674990000000 1.0
C      1  0.4673540000000  0.5117570000000  0.4230990000000 1.0
C      1  0.4225690000000  0.5323940000000  0.4876000000000 1.0
C      1  0.5776640000000  0.5324240000000  0.5126450000000 1.0
C      1  0.5775070000000  0.4672350000000  0.4880060000000 1.0
C      1  0.5120740000000  0.5778610000000  0.5328310000000 1.0
C      1  0.4875210000000  0.5779970000000  0.4673750000000 1.0
C      1  0.4878930000000  0.4221690000000  0.5323910000000 1.0
C      1  0.4677650000000  0.4878670000000  0.5768540000000 1.0
C      1  0.5321360000000  0.4874830000000  0.4228810000000 1.0
C      1  0.5324080000000  0.5118670000000  0.5769900000000 1.0
C      1  0.4190610000000  0.4842590000000  0.4950800000000 1.0
C      1  0.4842570000000  0.4951130000000  0.4196830000000 1.0
C      1  0.4953440000000  0.4189810000000  0.4843380000000 1.0
C      1  0.4190580000000  0.5156340000000  0.5046530000000 1.0
C      1  0.5808580000000  0.4842910000000  0.5048800000000 1.0
C      1  0.5811830000000  0.5155250000000  0.4955500000000 1.0
C      1  0.4846430000000  0.5046110000000  0.5804670000000 1.0
C      1  0.5155340000000  0.4952480000000  0.5804750000000 1.0
C      1  0.5152960000000  0.5044560000000  0.4192960000000 1.0
C      1  0.4952550000000  0.5813990000000  0.5156660000000 1.0
C      1  0.5047790000000  0.4186620000000  0.5153690000000 1.0
C      1  0.5045420000000  0.5815270000000  0.4844700000000 1.0
C      1  0.4192880000000  0.4952860000000  0.4843840000000 1.0
C      1  0.4843300000000  0.4186740000000  0.4950540000000 1.0
C      1  0.4951370000000  0.4842160000000  0.4197040000000 1.0
C      1  0.4193730000000  0.5046480000000  0.5153180000000 1.0
C      1  0.5811140000000  0.5046040000000  0.4846880000000 1.0
C      1  0.5807360000000  0.4952620000000  0.5157520000000 1.0
C      1  0.4842860000000  0.5813790000000  0.5046940000000 1.0
C      1  0.5154910000000  0.5815750000000  0.4954050000000 1.0
C      1  0.5157360000000  0.4185260000000  0.5046360000000 1.0
C      1  0.4953060000000  0.5155880000000  0.5808160000000 1.0
C      1  0.5044810000000  0.5153080000000  0.4192040000000 1.0
C      1  0.5048240000000  0.4842510000000  0.5806040000000 1.0
C      1  0.4703190000000  0.5655180000000  0.5116960000000 1.0
C      1  0.5645600000000  0.5115370000000  0.4709950000000 1.0
C      1  0.5119170000000  0.4702790000000  0.5646620000000 1.0
C      1  0.4702430000000  0.4344570000000  0.4879930000000 1.0
C      1  0.5292740000000  0.5651580000000  0.4885140000000 1.0
C      1  0.5296010000000  0.4347780000000  0.5116450000000 1.0
C      1  0.5650990000000  0.4880570000000  0.5297960000000 1.0
C      1  0.4357940000000  0.5117160000000  0.5290950000000 1.0
C      1  0.4347720000000  0.4880070000000  0.4701860000000 1.0
C      1  0.5112380000000  0.5290280000000  0.4357320000000 1.0
C      1  0.4879390000000  0.4700190000000  0.4350720000000 1.0
C      1  0.4884190000000  0.5295570000000  0.5647170000000 1.0
C      1  0.4708840000000  0.5116770000000  0.5640700000000 1.0
C      1  0.5650920000000  0.4701870000000  0.5118440000000 1.0
C      1  0.5114920000000  0.5650450000000  0.4707340000000 1.0
C      1  0.4700540000000  0.4879050000000  0.4350330000000 1.0
C      1  0.5297170000000  0.4880920000000  0.5649370000000 1.0
C      1  0.5289250000000  0.5113110000000  0.4359420000000 1.0
C      1  0.5646540000000  0.5292570000000  0.4887330000000 1.0
C      1  0.4351920000000  0.5295770000000  0.5115560000000 1.0
C      1  0.4347600000000  0.4701910000000  0.4879530000000 1.0
C      1  0.5118150000000  0.4348500000000  0.5292660000000 1.0
C      1  0.4880450000000  0.4345470000000  0.4702100000000 1.0
C      1  0.4882600000000  0.5655490000000  0.5296530000000 1.0
C      1  0.4438180000000  0.4927040000000  0.5173600000000 1.0
C      1  0.4923680000000  0.5178460000000  0.4435010000000 1.0
C      1  0.5180090000000  0.4430540000000  0.4927100000000 1.0
C      1  0.4439140000000  0.5073190000000  0.4822750000000 1.0
C      1  0.5571020000000  0.4925800000000  0.4819680000000 1.0
C      1  0.5561120000000  0.5074180000000  0.5179080000000 1.0
C      1  0.4929920000000  0.4818410000000  0.5561720000000 1.0
C      1  0.5074470000000  0.5181330000000  0.5564210000000 1.0
C      1  0.5071230000000  0.4820380000000  0.4442220000000 1.0
C      1  0.5183040000000  0.5575440000000  0.5074630000000 1.0
C      1  0.4819770000000  0.4428470000000  0.5071290000000 1.0
C      1  0.4819700000000  0.5575120000000  0.4921970000000 1.0
C      1  0.4434760000000  0.5180600000000  0.4925530000000 1.0
C      1  0.4926740000000  0.4428600000000  0.5176220000000 1.0
C      1  0.5176990000000  0.4925090000000  0.4437570000000 1.0
C      1  0.4434860000000  0.4819150000000  0.5069810000000 1.0
C      1  0.5572040000000  0.4819270000000  0.4924650000000 1.0
C      1  0.5568370000000  0.5181470000000  0.5075880000000 1.0
C      1  0.4925850000000  0.5574270000000  0.4817030000000 1.0
C      1  0.5078010000000  0.5575910000000  0.5180460000000 1.0
C      1  0.5073060000000  0.4436460000000  0.4823900000000 1.0
C      1  0.5177370000000  0.5074210000000  0.5559400000000 1.0
C      1  0.4820140000000  0.5072020000000  0.4441320000000 1.0
C      1  0.4826020000000  0.4926690000000  0.5559540000000 1.0
C      1  0.5157360000000  0.4888860000000  0.4884230000000 1.0
C      1  0.4910310000000  0.4991880000000  0.5089350000000 1.0
C      1  0.4888830000000  0.5160830000000  0.4889280000000 1.0
C      1  0.5111980000000  0.5165160000000  0.5112540000000 1.0
END
