TITL C-1892070-372-85 2.87543336924979e-07 1000000 -2634.2771057439 0 0 380 (Th) n - 1
REM
REM in /nfs/bkarasulu/CARBON/AIRSS/Generating-Clusters/GAP-ML-2020/Higher-Symm/Selected-Sizes/TryA-Only_Ih-Symm/Larger-Clusters
REM
REM
REM
REM
REM
REM ./C.cell (2cf5181f0f1d4d5b12b972d32ad12063)
REM
REM compiler GCC version 9.2.1 20190827 (Red Hat 9.2.1-1)
REM options -cpp -mtune=generic -march=x86-64 -g -O0 -fpre-include=/usr/include/finclude/math-vector-fortran.h
REM seed -1217525972 -559998724 644134242 980064001 75973918 -1278557354 -1562390092 1812531073 -80390339 358618357 106032491 -982853344 -310039073 -1269538442 1015371787 518529172 913834079 1877824226 -1325355931 -602445086 961455790 526640968 1529675732 -1644579448 -824029477 -1342493016 -384798378 968580178 -347979403 -380904962 -2008626091 -1239614677 -1958276367
REM
CELL 1.54180  100.00000  100.00000  100.00000   90.00000   90.00000   90.00000
LATT -1
SFAC C  
C      1  0.5689070000000  0.5073850000000  0.4612410000000 1.0
C      1  0.5073170000000  0.4611600000000  0.5690560000000 1.0
C      1  0.4610920000000  0.5689750000000  0.5074660000000 1.0
C      1  0.4309310000000  0.5073850000000  0.5388960000000 1.0
C      1  0.4309310000000  0.4925900000000  0.4612410000000 1.0
C      1  0.5689070000000  0.4925900000000  0.5388960000000 1.0
C      1  0.4925210000000  0.4611600000000  0.4310800000000 1.0
C      1  0.4925210000000  0.5388150000000  0.5690560000000 1.0
C      1  0.5073170000000  0.5388150000000  0.4310800000000 1.0
C      1  0.5387470000000  0.5689750000000  0.4926710000000 1.0
C      1  0.5387470000000  0.4310000000000  0.5074660000000 1.0
C      1  0.4610920000000  0.4310000000000  0.4926710000000 1.0
C      1  0.5689070000000  0.4925900000000  0.4612410000000 1.0
C      1  0.5073170000000  0.5388150000000  0.5690560000000 1.0
C      1  0.4610920000000  0.4310000000000  0.5074660000000 1.0
C      1  0.4309310000000  0.4925900000000  0.5388960000000 1.0
C      1  0.4309310000000  0.5073850000000  0.4612410000000 1.0
C      1  0.5689070000000  0.5073850000000  0.5388960000000 1.0
C      1  0.4925210000000  0.5388150000000  0.4310800000000 1.0
C      1  0.4925210000000  0.4611600000000  0.5690560000000 1.0
C      1  0.5073170000000  0.4611600000000  0.4310800000000 1.0
C      1  0.5387470000000  0.4310000000000  0.4926710000000 1.0
C      1  0.5387470000000  0.5689750000000  0.5074660000000 1.0
C      1  0.4610920000000  0.5689750000000  0.4926710000000 1.0
C      1  0.4857030000000  0.5331320000000  0.5279310000000 1.0
C      1  0.5330640000000  0.5278510000000  0.4858530000000 1.0
C      1  0.5277820000000  0.4857720000000  0.5332130000000 1.0
C      1  0.5141350000000  0.5331320000000  0.4722050000000 1.0
C      1  0.5141350000000  0.4668430000000  0.5279310000000 1.0
C      1  0.4857030000000  0.4668430000000  0.4722050000000 1.0
C      1  0.4667740000000  0.5278510000000  0.5142840000000 1.0
C      1  0.4667740000000  0.4721240000000  0.4858530000000 1.0
C      1  0.5330640000000  0.4721240000000  0.5142840000000 1.0
C      1  0.4720560000000  0.4857720000000  0.4669240000000 1.0
C      1  0.4720560000000  0.5142030000000  0.5332130000000 1.0
C      1  0.5277820000000  0.5142030000000  0.4669240000000 1.0
C      1  0.4857030000000  0.4668430000000  0.5279310000000 1.0
C      1  0.5330640000000  0.4721240000000  0.4858530000000 1.0
C      1  0.5277820000000  0.5142030000000  0.5332130000000 1.0
C      1  0.5141350000000  0.4668430000000  0.4722050000000 1.0
C      1  0.5141350000000  0.5331320000000  0.5279310000000 1.0
C      1  0.4857030000000  0.5331320000000  0.4722050000000 1.0
C      1  0.4667740000000  0.4721240000000  0.5142840000000 1.0
C      1  0.4667740000000  0.5278510000000  0.4858530000000 1.0
C      1  0.5330640000000  0.5278510000000  0.5142840000000 1.0
C      1  0.4720560000000  0.5142030000000  0.4669240000000 1.0
C      1  0.4720560000000  0.4857720000000  0.5332130000000 1.0
C      1  0.5277820000000  0.4857720000000  0.4669240000000 1.0
C      1  0.4836040000000  0.4932370000000  0.5340940000000 1.0
C      1  0.4931690000000  0.5340130000000  0.4837530000000 1.0
C      1  0.5339440000000  0.4836720000000  0.4933180000000 1.0
C      1  0.5162350000000  0.4932370000000  0.4660430000000 1.0
C      1  0.5162350000000  0.5067380000000  0.5340940000000 1.0
C      1  0.4836040000000  0.5067380000000  0.4660430000000 1.0
C      1  0.5066700000000  0.5340130000000  0.5163840000000 1.0
C      1  0.5066700000000  0.4659620000000  0.4837530000000 1.0
C      1  0.4931690000000  0.4659620000000  0.5163840000000 1.0
C      1  0.4658940000000  0.4836720000000  0.5068190000000 1.0
C      1  0.4658940000000  0.5163030000000  0.4933180000000 1.0
C      1  0.5339440000000  0.5163030000000  0.5068190000000 1.0
C      1  0.4836040000000  0.5067380000000  0.5340940000000 1.0
C      1  0.4931690000000  0.4659620000000  0.4837530000000 1.0
C      1  0.5339440000000  0.5163030000000  0.4933180000000 1.0
C      1  0.5162350000000  0.5067380000000  0.4660430000000 1.0
C      1  0.5162350000000  0.4932370000000  0.5340940000000 1.0
C      1  0.4836040000000  0.4932370000000  0.4660430000000 1.0
C      1  0.5066700000000  0.4659620000000  0.5163840000000 1.0
C      1  0.5066700000000  0.5340130000000  0.4837530000000 1.0
C      1  0.4931690000000  0.5340130000000  0.5163840000000 1.0
C      1  0.4658940000000  0.5163030000000  0.5068190000000 1.0
C      1  0.4658940000000  0.4836720000000  0.4933180000000 1.0
C      1  0.5339440000000  0.4836720000000  0.5068190000000 1.0
C      1  0.4815160000000  0.4466470000000  0.5513830000000 1.0
C      1  0.4465790000000  0.5513020000000  0.4816650000000 1.0
C      1  0.5512340000000  0.4815840000000  0.4467280000000 1.0
C      1  0.5183220000000  0.4466470000000  0.4487540000000 1.0
C      1  0.5183220000000  0.5533280000000  0.5513830000000 1.0
C      1  0.4815160000000  0.5533280000000  0.4487540000000 1.0
C      1  0.5532590000000  0.5513020000000  0.5184710000000 1.0
C      1  0.5532590000000  0.4486730000000  0.4816650000000 1.0
C      1  0.4465790000000  0.4486730000000  0.5184710000000 1.0
C      1  0.4486040000000  0.4815840000000  0.5534090000000 1.0
C      1  0.4486040000000  0.5183910000000  0.4467280000000 1.0
C      1  0.5512340000000  0.5183910000000  0.5534090000000 1.0
C      1  0.4815160000000  0.5533280000000  0.5513830000000 1.0
C      1  0.4465790000000  0.4486730000000  0.4816650000000 1.0
C      1  0.5512340000000  0.5183910000000  0.4467280000000 1.0
C      1  0.5183220000000  0.5533280000000  0.4487540000000 1.0
C      1  0.5183220000000  0.4466470000000  0.5513830000000 1.0
C      1  0.4815160000000  0.4466470000000  0.4487540000000 1.0
C      1  0.5532590000000  0.4486730000000  0.5184710000000 1.0
C      1  0.5532590000000  0.5513020000000  0.4816650000000 1.0
C      1  0.4465790000000  0.5513020000000  0.5184710000000 1.0
C      1  0.4486040000000  0.5183910000000  0.5534090000000 1.0
C      1  0.4486040000000  0.4815840000000  0.4467280000000 1.0
C      1  0.5512340000000  0.4815840000000  0.5534090000000 1.0
C      1  0.5396730000000  0.4931800000000  0.5308370000000 1.0
C      1  0.4931120000000  0.5307570000000  0.5398220000000 1.0
C      1  0.5306880000000  0.5397410000000  0.4932610000000 1.0
C      1  0.4601660000000  0.4931800000000  0.4692990000000 1.0
C      1  0.4601660000000  0.5067950000000  0.5308370000000 1.0
C      1  0.5396730000000  0.5067950000000  0.4692990000000 1.0
C      1  0.5067270000000  0.5307570000000  0.4603150000000 1.0
C      1  0.5067270000000  0.4692180000000  0.5398220000000 1.0
C      1  0.4931120000000  0.4692180000000  0.4603150000000 1.0
C      1  0.4691500000000  0.5397410000000  0.5068760000000 1.0
C      1  0.4691500000000  0.4602340000000  0.4932610000000 1.0
C      1  0.5306880000000  0.4602340000000  0.5068760000000 1.0
C      1  0.5396730000000  0.5067950000000  0.5308370000000 1.0
C      1  0.4931120000000  0.4692180000000  0.5398220000000 1.0
C      1  0.5306880000000  0.4602340000000  0.4932610000000 1.0
C      1  0.4601660000000  0.5067950000000  0.4692990000000 1.0
C      1  0.4601660000000  0.4931800000000  0.5308370000000 1.0
C      1  0.5396730000000  0.4931800000000  0.4692990000000 1.0
C      1  0.5067270000000  0.4692180000000  0.4603150000000 1.0
C      1  0.5067270000000  0.5307570000000  0.5398220000000 1.0
C      1  0.4931120000000  0.5307570000000  0.4603150000000 1.0
C      1  0.4691500000000  0.4602340000000  0.5068760000000 1.0
C      1  0.4691500000000  0.5397410000000  0.4932610000000 1.0
C      1  0.5306880000000  0.5397410000000  0.5068760000000 1.0
C      1  0.5262430000000  0.5407390000000  0.5517630000000 1.0
C      1  0.5406700000000  0.5516820000000  0.5263920000000 1.0
C      1  0.5516140000000  0.5263110000000  0.5408200000000 1.0
C      1  0.4735950000000  0.5407390000000  0.4483740000000 1.0
C      1  0.4735950000000  0.4592360000000  0.5517630000000 1.0
C      1  0.5262430000000  0.4592360000000  0.4483740000000 1.0
C      1  0.4591680000000  0.5516820000000  0.4737440000000 1.0
C      1  0.4591680000000  0.4482930000000  0.5263920000000 1.0
C      1  0.5406700000000  0.4482930000000  0.4737440000000 1.0
C      1  0.4482240000000  0.5263110000000  0.4593170000000 1.0
C      1  0.4482240000000  0.4736640000000  0.5408200000000 1.0
C      1  0.5516140000000  0.4736640000000  0.4593170000000 1.0
C      1  0.5262430000000  0.4592360000000  0.5517630000000 1.0
C      1  0.5406700000000  0.4482930000000  0.5263920000000 1.0
C      1  0.5516140000000  0.4736640000000  0.5408200000000 1.0
C      1  0.4735950000000  0.4592360000000  0.4483740000000 1.0
C      1  0.4735950000000  0.5407390000000  0.5517630000000 1.0
C      1  0.5262430000000  0.5407390000000  0.4483740000000 1.0
C      1  0.4591680000000  0.4482930000000  0.4737440000000 1.0
C      1  0.4591680000000  0.5516820000000  0.5263920000000 1.0
C      1  0.5406700000000  0.5516820000000  0.4737440000000 1.0
C      1  0.4482240000000  0.4736640000000  0.4593170000000 1.0
C      1  0.4482240000000  0.5263110000000  0.5408200000000 1.0
C      1  0.5516140000000  0.5263110000000  0.4593170000000 1.0
C      1  0.4610540000000  0.4813240000000  0.5612220000000 1.0
C      1  0.4812560000000  0.5611410000000  0.4612030000000 1.0
C      1  0.5610730000000  0.4611230000000  0.4814050000000 1.0
C      1  0.5387840000000  0.4813240000000  0.4389140000000 1.0
C      1  0.5387840000000  0.5186510000000  0.5612220000000 1.0
C      1  0.4610540000000  0.5186510000000  0.4389140000000 1.0
C      1  0.5185820000000  0.5611410000000  0.5389330000000 1.0
C      1  0.5185820000000  0.4388340000000  0.4612030000000 1.0
C      1  0.4812560000000  0.4388340000000  0.5389330000000 1.0
C      1  0.4387650000000  0.4611230000000  0.5187320000000 1.0
C      1  0.4387650000000  0.5388520000000  0.4814050000000 1.0
C      1  0.5610730000000  0.5388520000000  0.5187320000000 1.0
C      1  0.4610540000000  0.5186510000000  0.5612220000000 1.0
C      1  0.4812560000000  0.4388340000000  0.4612030000000 1.0
C      1  0.5610730000000  0.5388520000000  0.4814050000000 1.0
C      1  0.5387840000000  0.5186510000000  0.4389140000000 1.0
C      1  0.5387840000000  0.4813240000000  0.5612220000000 1.0
C      1  0.4610540000000  0.4813240000000  0.4389140000000 1.0
C      1  0.5185820000000  0.4388340000000  0.5389330000000 1.0
C      1  0.5185820000000  0.5611410000000  0.4612030000000 1.0
C      1  0.4812560000000  0.5611410000000  0.5389330000000 1.0
C      1  0.4387650000000  0.5388520000000  0.5187320000000 1.0
C      1  0.4387650000000  0.4611230000000  0.4814050000000 1.0
C      1  0.5610730000000  0.4611230000000  0.5187320000000 1.0
C      1  0.5161150000000  0.4868250000000  0.5688130000000 1.0
C      1  0.4867570000000  0.5687320000000  0.5162640000000 1.0
C      1  0.5686640000000  0.5161830000000  0.4869060000000 1.0
C      1  0.4837230000000  0.4868250000000  0.4313240000000 1.0
C      1  0.4837230000000  0.5131500000000  0.5688130000000 1.0
C      1  0.5161150000000  0.5131500000000  0.4313240000000 1.0
C      1  0.5130820000000  0.5687320000000  0.4838720000000 1.0
C      1  0.5130820000000  0.4312430000000  0.5162640000000 1.0
C      1  0.4867570000000  0.4312430000000  0.4838720000000 1.0
C      1  0.4311750000000  0.5161830000000  0.5132310000000 1.0
C      1  0.4311750000000  0.4837910000000  0.4869060000000 1.0
C      1  0.5686640000000  0.4837910000000  0.5132310000000 1.0
C      1  0.5161150000000  0.5131500000000  0.5688130000000 1.0
C      1  0.4867570000000  0.4312430000000  0.5162640000000 1.0
C      1  0.5686640000000  0.4837910000000  0.4869060000000 1.0
C      1  0.4837230000000  0.5131500000000  0.4313240000000 1.0
C      1  0.4837230000000  0.4868250000000  0.5688130000000 1.0
C      1  0.5161150000000  0.4868250000000  0.4313240000000 1.0
C      1  0.5130820000000  0.4312430000000  0.4838720000000 1.0
C      1  0.5130820000000  0.5687320000000  0.5162640000000 1.0
C      1  0.4867570000000  0.5687320000000  0.4838720000000 1.0
C      1  0.4311750000000  0.4837910000000  0.5132310000000 1.0
C      1  0.4311750000000  0.5161830000000  0.4869060000000 1.0
C      1  0.5686640000000  0.5161830000000  0.5132310000000 1.0
C      1  0.4695490000000  0.5074340000000  0.4340320000000 1.0
C      1  0.5073660000000  0.4339510000000  0.4696990000000 1.0
C      1  0.4338820000000  0.4696180000000  0.5075150000000 1.0
C      1  0.5302890000000  0.5074340000000  0.5661050000000 1.0
C      1  0.5302890000000  0.4925400000000  0.4340320000000 1.0
C      1  0.4695490000000  0.4925400000000  0.5661050000000 1.0
C      1  0.4924720000000  0.4339510000000  0.5304380000000 1.0
C      1  0.4924720000000  0.5660240000000  0.4696990000000 1.0
C      1  0.5073660000000  0.5660240000000  0.5304380000000 1.0
C      1  0.5659560000000  0.4696180000000  0.4926210000000 1.0
C      1  0.5659560000000  0.5303570000000  0.5075150000000 1.0
C      1  0.4338820000000  0.5303570000000  0.4926210000000 1.0
C      1  0.4695490000000  0.4925400000000  0.4340320000000 1.0
C      1  0.5073660000000  0.5660240000000  0.4696990000000 1.0
C      1  0.4338820000000  0.5303570000000  0.5075150000000 1.0
C      1  0.5302890000000  0.4925400000000  0.5661050000000 1.0
C      1  0.5302890000000  0.5074340000000  0.4340320000000 1.0
C      1  0.4695490000000  0.5074340000000  0.5661050000000 1.0
C      1  0.4924720000000  0.5660240000000  0.5304380000000 1.0
C      1  0.4924720000000  0.4339510000000  0.4696990000000 1.0
C      1  0.5073660000000  0.4339510000000  0.5304380000000 1.0
C      1  0.5659560000000  0.5303570000000  0.4926210000000 1.0
C      1  0.5659560000000  0.4696180000000  0.5075150000000 1.0
C      1  0.4338820000000  0.4696180000000  0.4926210000000 1.0
C      1  0.5073260000000  0.5073460000000  0.5581860000000 1.0
C      1  0.5072770000000  0.5581050000000  0.5074750000000 1.0
C      1  0.5580370000000  0.5073940000000  0.5074270000000 1.0
C      1  0.4925120000000  0.5073460000000  0.4419510000000 1.0
C      1  0.4925120000000  0.4926290000000  0.5581860000000 1.0
C      1  0.5073260000000  0.4926290000000  0.4419510000000 1.0
C      1  0.4925610000000  0.5581050000000  0.4926620000000 1.0
C      1  0.4925610000000  0.4418700000000  0.5074750000000 1.0
C      1  0.5072770000000  0.4418700000000  0.4926620000000 1.0
C      1  0.4418010000000  0.5073940000000  0.4927100000000 1.0
C      1  0.4418010000000  0.4925810000000  0.5074270000000 1.0
C      1  0.5580370000000  0.4925810000000  0.4927100000000 1.0
C      1  0.5073260000000  0.4926290000000  0.5581860000000 1.0
C      1  0.5072770000000  0.4418700000000  0.5074750000000 1.0
C      1  0.5580370000000  0.4925810000000  0.5074270000000 1.0
C      1  0.4925120000000  0.4926290000000  0.4419510000000 1.0
C      1  0.4925120000000  0.5073460000000  0.5581860000000 1.0
C      1  0.5073260000000  0.5073460000000  0.4419510000000 1.0
C      1  0.4925610000000  0.4418700000000  0.4926620000000 1.0
C      1  0.4925610000000  0.5581050000000  0.5074750000000 1.0
C      1  0.5072770000000  0.5581050000000  0.4926620000000 1.0
C      1  0.4418010000000  0.4925810000000  0.4927100000000 1.0
C      1  0.4418010000000  0.5073940000000  0.5074270000000 1.0
C      1  0.5580370000000  0.5073940000000  0.4927100000000 1.0
C      1  0.5276670000000  0.5655220000000  0.5167440000000 1.0
C      1  0.5654540000000  0.5166630000000  0.5278170000000 1.0
C      1  0.5165940000000  0.5277360000000  0.5656030000000 1.0
C      1  0.4721710000000  0.5655220000000  0.4833930000000 1.0
C      1  0.4721710000000  0.4344530000000  0.5167440000000 1.0
C      1  0.5276670000000  0.4344530000000  0.4833930000000 1.0
C      1  0.4343850000000  0.5166630000000  0.4723200000000 1.0
C      1  0.4343850000000  0.4833120000000  0.5278170000000 1.0
C      1  0.5654540000000  0.4833120000000  0.4723200000000 1.0
C      1  0.4832440000000  0.5277360000000  0.4345340000000 1.0
C      1  0.4832440000000  0.4722390000000  0.5656030000000 1.0
C      1  0.5165940000000  0.4722390000000  0.4345340000000 1.0
C      1  0.5276670000000  0.4344530000000  0.5167440000000 1.0
C      1  0.5654540000000  0.4833120000000  0.5278170000000 1.0
C      1  0.5165940000000  0.4722390000000  0.5656030000000 1.0
C      1  0.4721710000000  0.4344530000000  0.4833930000000 1.0
C      1  0.4721710000000  0.5655220000000  0.5167440000000 1.0
C      1  0.5276670000000  0.5655220000000  0.4833930000000 1.0
C      1  0.4343850000000  0.4833120000000  0.4723200000000 1.0
C      1  0.4343850000000  0.5166630000000  0.5278170000000 1.0
C      1  0.5654540000000  0.5166630000000  0.4723200000000 1.0
C      1  0.4832440000000  0.4722390000000  0.4345340000000 1.0
C      1  0.4832440000000  0.5277360000000  0.5656030000000 1.0
C      1  0.5165940000000  0.5277360000000  0.4345340000000 1.0
C      1  0.5150880000000  0.5309180000000  0.4493050000000 1.0
C      1  0.5308500000000  0.4492250000000  0.5152370000000 1.0
C      1  0.4491560000000  0.5151560000000  0.5309990000000 1.0
C      1  0.4847510000000  0.5309180000000  0.5508310000000 1.0
C      1  0.4847510000000  0.4690560000000  0.4493050000000 1.0
C      1  0.5150880000000  0.4690560000000  0.5508310000000 1.0
C      1  0.4689880000000  0.4492250000000  0.4849000000000 1.0
C      1  0.4689880000000  0.5507500000000  0.5152370000000 1.0
C      1  0.5308500000000  0.5507500000000  0.4849000000000 1.0
C      1  0.5506820000000  0.5151560000000  0.4691370000000 1.0
C      1  0.5506820000000  0.4848190000000  0.5309990000000 1.0
C      1  0.4491560000000  0.4848190000000  0.4691370000000 1.0
C      1  0.5150880000000  0.4690560000000  0.4493050000000 1.0
C      1  0.5308500000000  0.5507500000000  0.5152370000000 1.0
C      1  0.4491560000000  0.4848190000000  0.5309990000000 1.0
C      1  0.4847510000000  0.4690560000000  0.5508310000000 1.0
C      1  0.4847510000000  0.5309180000000  0.4493050000000 1.0
C      1  0.5150880000000  0.5309180000000  0.5508310000000 1.0
C      1  0.4689880000000  0.5507500000000  0.4849000000000 1.0
C      1  0.4689880000000  0.4492250000000  0.5152370000000 1.0
C      1  0.5308500000000  0.4492250000000  0.4849000000000 1.0
C      1  0.5506820000000  0.4848190000000  0.4691370000000 1.0
C      1  0.5506820000000  0.5151560000000  0.5309990000000 1.0
C      1  0.4491560000000  0.5151560000000  0.4691370000000 1.0
C      1  0.4201860000000  0.5074180000000  0.4929290000000 1.0
C      1  0.5073490000000  0.4928480000000  0.4203350000000 1.0
C      1  0.4927800000000  0.4202540000000  0.5074990000000 1.0
C      1  0.5796530000000  0.5074180000000  0.5072080000000 1.0
C      1  0.5796530000000  0.4925570000000  0.4929290000000 1.0
C      1  0.4201860000000  0.4925570000000  0.5072080000000 1.0
C      1  0.4924890000000  0.4928480000000  0.5798020000000 1.0
C      1  0.4924890000000  0.5071270000000  0.4203350000000 1.0
C      1  0.5073490000000  0.5071270000000  0.5798020000000 1.0
C      1  0.5070580000000  0.4202540000000  0.4926380000000 1.0
C      1  0.5070580000000  0.5797210000000  0.5074990000000 1.0
C      1  0.4927800000000  0.5797210000000  0.4926380000000 1.0
C      1  0.4201860000000  0.4925570000000  0.4929290000000 1.0
C      1  0.5073490000000  0.5071270000000  0.4203350000000 1.0
C      1  0.4927800000000  0.5797210000000  0.5074990000000 1.0
C      1  0.5796530000000  0.4925570000000  0.5072080000000 1.0
C      1  0.5796530000000  0.5074180000000  0.4929290000000 1.0
C      1  0.4201860000000  0.5074180000000  0.5072080000000 1.0
C      1  0.4924890000000  0.5071270000000  0.5798020000000 1.0
C      1  0.4924890000000  0.4928480000000  0.4203350000000 1.0
C      1  0.5073490000000  0.4928480000000  0.5798020000000 1.0
C      1  0.5070580000000  0.5797210000000  0.4926380000000 1.0
C      1  0.5070580000000  0.4202540000000  0.5074990000000 1.0
C      1  0.4927800000000  0.4202540000000  0.4926380000000 1.0
C      1  0.4924940000000  0.4486330000000  0.4390940000000 1.0
C      1  0.4485650000000  0.4390130000000  0.4926440000000 1.0
C      1  0.4389450000000  0.4925630000000  0.4487140000000 1.0
C      1  0.5073440000000  0.4486330000000  0.5610430000000 1.0
C      1  0.5073440000000  0.5513420000000  0.4390940000000 1.0
C      1  0.4924940000000  0.5513420000000  0.5610430000000 1.0
C      1  0.5512730000000  0.4390130000000  0.5074930000000 1.0
C      1  0.5512730000000  0.5609620000000  0.4926440000000 1.0
C      1  0.4485650000000  0.5609620000000  0.5074930000000 1.0
C      1  0.5608940000000  0.4925630000000  0.5514220000000 1.0
C      1  0.5608940000000  0.5074120000000  0.4487140000000 1.0
C      1  0.4389450000000  0.5074120000000  0.5514220000000 1.0
C      1  0.4924940000000  0.5513420000000  0.4390940000000 1.0
C      1  0.4485650000000  0.5609620000000  0.4926440000000 1.0
C      1  0.4389450000000  0.5074120000000  0.4487140000000 1.0
C      1  0.5073440000000  0.5513420000000  0.5610430000000 1.0
C      1  0.5073440000000  0.4486330000000  0.4390940000000 1.0
C      1  0.4924940000000  0.4486330000000  0.5610430000000 1.0
C      1  0.5512730000000  0.5609620000000  0.5074930000000 1.0
C      1  0.5512730000000  0.4390130000000  0.4926440000000 1.0
C      1  0.4485650000000  0.4390130000000  0.5074930000000 1.0
C      1  0.5608940000000  0.5074120000000  0.5514220000000 1.0
C      1  0.5608940000000  0.4925630000000  0.4487140000000 1.0
C      1  0.4389450000000  0.4925630000000  0.5514220000000 1.0
C      1  0.5618700000000  0.5314800000000  0.5313590000000 1.0
C      1  0.5314110000000  0.5312780000000  0.5620190000000 1.0
C      1  0.5312100000000  0.5619380000000  0.5315600000000 1.0
C      1  0.4379680000000  0.5314800000000  0.4687770000000 1.0
C      1  0.4379680000000  0.4684950000000  0.5313590000000 1.0
C      1  0.5618700000000  0.4684950000000  0.4687770000000 1.0
C      1  0.4684270000000  0.5312780000000  0.4381180000000 1.0
C      1  0.4684270000000  0.4686960000000  0.5620190000000 1.0
C      1  0.5314110000000  0.4686960000000  0.4381180000000 1.0
C      1  0.4686280000000  0.5619380000000  0.4685760000000 1.0
C      1  0.4686280000000  0.4380370000000  0.5315600000000 1.0
C      1  0.5312100000000  0.4380370000000  0.4685760000000 1.0
C      1  0.5618700000000  0.4684950000000  0.5313590000000 1.0
C      1  0.5314110000000  0.4686960000000  0.5620190000000 1.0
C      1  0.5312100000000  0.4380370000000  0.5315600000000 1.0
C      1  0.4379680000000  0.4684950000000  0.4687770000000 1.0
C      1  0.4379680000000  0.5314800000000  0.5313590000000 1.0
C      1  0.5618700000000  0.5314800000000  0.4687770000000 1.0
C      1  0.4684270000000  0.4686960000000  0.4381180000000 1.0
C      1  0.4684270000000  0.5312780000000  0.5620190000000 1.0
C      1  0.5314110000000  0.5312780000000  0.4381180000000 1.0
C      1  0.4686280000000  0.4380370000000  0.4685760000000 1.0
C      1  0.4686280000000  0.5619380000000  0.5315600000000 1.0
C      1  0.5312100000000  0.5619380000000  0.4685760000000 1.0
C      1  0.4924090000000  0.4999870000000  0.4559720000000 1.0
C      1  0.4999190000000  0.4558910000000  0.4925580000000 1.0
C      1  0.4558220000000  0.4924780000000  0.5000680000000 1.0
C      1  0.5074290000000  0.4999870000000  0.5441650000000 1.0
C      1  0.5074290000000  0.4999870000000  0.4559720000000 1.0
C      1  0.4924090000000  0.4999870000000  0.5441650000000 1.0
C      1  0.4999190000000  0.4558910000000  0.5075780000000 1.0
C      1  0.4999190000000  0.5440840000000  0.4925580000000 1.0
C      1  0.4999190000000  0.5440840000000  0.5075780000000 1.0
C      1  0.5440160000000  0.4924780000000  0.5000680000000 1.0
C      1  0.5440160000000  0.5074970000000  0.5000680000000 1.0
C      1  0.4558220000000  0.5074970000000  0.5000680000000 1.0
C      1  0.4729620000000  0.5269440000000  0.5270250000000 1.0
C      1  0.5268760000000  0.5269440000000  0.4731120000000 1.0
C      1  0.5268760000000  0.4730310000000  0.5270250000000 1.0
C      1  0.4729620000000  0.4730310000000  0.4731120000000 1.0
C      1  0.5268760000000  0.4730310000000  0.4731120000000 1.0
C      1  0.4729620000000  0.5269440000000  0.4731120000000 1.0
C      1  0.4729620000000  0.4730310000000  0.5270250000000 1.0
C      1  0.5268760000000  0.5269440000000  0.5270250000000 1.0
END
