TITL C-1892081-8120-58 2.23325850202957e-06 1000000 -4296.67264435612 0 0 600 (Th) n - 1
REM
REM in /nfs/bkarasulu/CARBON/AIRSS/Generating-Clusters/GAP-ML-2020/Higher-Symm/Selected-Sizes/TryA-Only_Ih-Symm/Larger-Clusters
REM
REM
REM
REM
REM
REM ./C.cell (2cf5181f0f1d4d5b12b972d32ad12063)
REM
REM compiler GCC version 9.2.1 20190827 (Red Hat 9.2.1-1)
REM options -cpp -mtune=generic -march=x86-64 -g -O0 -fpre-include=/usr/include/finclude/math-vector-fortran.h
REM seed 1039165694 1638066214 1682241722 -1306290086 40120403 -782653803 -2117139774 1472595786 482144130 -1548498963 212427448 -679721602 -868806185 1994113793 97630804 570175445 1004970606 -1112984091 -1192843128 551273265 -1492705643 1577333413 -348243028 1029291270 -1870049419 -1591512163 1420829793 86380614 1620063814 -2094543123 -560296996 -2062593753 375045988
REM
CELL 1.54180  100.00000  100.00000  100.00000   90.00000   90.00000   90.00000
LATT -1
SFAC C  
C      1  0.5465400000000  0.5656060000000  0.4490510000000 1.0
C      1  0.4490510000000  0.5465400000000  0.5656060000000 1.0
C      1  0.5656060000000  0.4490510000000  0.5465400000000 1.0
C      1  0.4534600000000  0.4343940000000  0.4490510000000 1.0
C      1  0.4534600000000  0.5656060000000  0.5509490000000 1.0
C      1  0.5465400000000  0.4343940000000  0.5509490000000 1.0
C      1  0.5509490000000  0.4534600000000  0.5656060000000 1.0
C      1  0.5509490000000  0.5465400000000  0.4343940000000 1.0
C      1  0.4490510000000  0.4534600000000  0.4343940000000 1.0
C      1  0.4343940000000  0.5509490000000  0.5465400000000 1.0
C      1  0.4343940000000  0.4490510000000  0.4534600000000 1.0
C      1  0.5656060000000  0.5509490000000  0.4534600000000 1.0
C      1  0.5465400000000  0.5656060000000  0.5509490000000 1.0
C      1  0.4490510000000  0.5465400000000  0.4343940000000 1.0
C      1  0.5656060000000  0.4490510000000  0.4534600000000 1.0
C      1  0.4534600000000  0.4343940000000  0.5509490000000 1.0
C      1  0.4534600000000  0.5656060000000  0.4490510000000 1.0
C      1  0.5465400000000  0.4343940000000  0.4490510000000 1.0
C      1  0.5509490000000  0.4534600000000  0.4343940000000 1.0
C      1  0.5509490000000  0.5465400000000  0.5656060000000 1.0
C      1  0.4490510000000  0.4534600000000  0.5656060000000 1.0
C      1  0.4343940000000  0.5509490000000  0.4534600000000 1.0
C      1  0.4343940000000  0.4490510000000  0.5465400000000 1.0
C      1  0.5656060000000  0.5509490000000  0.5465400000000 1.0
C      1  0.5461840000000  0.5070460000000  0.5789180000000 1.0
C      1  0.5789180000000  0.5461840000000  0.5070460000000 1.0
C      1  0.5070460000000  0.5789180000000  0.5461840000000 1.0
C      1  0.4538160000000  0.4929540000000  0.5789180000000 1.0
C      1  0.4538160000000  0.5070460000000  0.4210820000000 1.0
C      1  0.5461840000000  0.4929540000000  0.4210820000000 1.0
C      1  0.4210820000000  0.4538160000000  0.5070460000000 1.0
C      1  0.4210820000000  0.5461840000000  0.4929540000000 1.0
C      1  0.5789180000000  0.4538160000000  0.4929540000000 1.0
C      1  0.4929540000000  0.4210820000000  0.5461840000000 1.0
C      1  0.4929540000000  0.5789180000000  0.4538160000000 1.0
C      1  0.5070460000000  0.4210820000000  0.4538160000000 1.0
C      1  0.5461840000000  0.5070460000000  0.4210820000000 1.0
C      1  0.5789180000000  0.5461840000000  0.4929540000000 1.0
C      1  0.5070460000000  0.5789180000000  0.4538160000000 1.0
C      1  0.4538160000000  0.4929540000000  0.4210820000000 1.0
C      1  0.4538160000000  0.5070460000000  0.5789180000000 1.0
C      1  0.5461840000000  0.4929540000000  0.5789180000000 1.0
C      1  0.4210820000000  0.4538160000000  0.4929540000000 1.0
C      1  0.4210820000000  0.5461840000000  0.5070460000000 1.0
C      1  0.5789180000000  0.4538160000000  0.5070460000000 1.0
C      1  0.4929540000000  0.4210820000000  0.4538160000000 1.0
C      1  0.4929540000000  0.5789180000000  0.5461840000000 1.0
C      1  0.5070460000000  0.4210820000000  0.5461840000000 1.0
C      1  0.5072270000000  0.4927630000000  0.5258540000000 1.0
C      1  0.5258540000000  0.5072270000000  0.4927630000000 1.0
C      1  0.4927630000000  0.5258540000000  0.5072270000000 1.0
C      1  0.4927730000000  0.5072370000000  0.5258540000000 1.0
C      1  0.4927730000000  0.4927630000000  0.4741460000000 1.0
C      1  0.5072270000000  0.5072370000000  0.4741460000000 1.0
C      1  0.4741460000000  0.4927730000000  0.4927630000000 1.0
C      1  0.4741460000000  0.5072270000000  0.5072370000000 1.0
C      1  0.5258540000000  0.4927730000000  0.5072370000000 1.0
C      1  0.5072370000000  0.4741460000000  0.5072270000000 1.0
C      1  0.5072370000000  0.5258540000000  0.4927730000000 1.0
C      1  0.4927630000000  0.4741460000000  0.4927730000000 1.0
C      1  0.5072270000000  0.4927630000000  0.4741460000000 1.0
C      1  0.5258540000000  0.5072270000000  0.5072370000000 1.0
C      1  0.4927630000000  0.5258540000000  0.4927730000000 1.0
C      1  0.4927730000000  0.5072370000000  0.4741460000000 1.0
C      1  0.4927730000000  0.4927630000000  0.5258540000000 1.0
C      1  0.5072270000000  0.5072370000000  0.5258540000000 1.0
C      1  0.4741460000000  0.4927730000000  0.5072370000000 1.0
C      1  0.4741460000000  0.5072270000000  0.4927630000000 1.0
C      1  0.5258540000000  0.4927730000000  0.4927630000000 1.0
C      1  0.5072370000000  0.4741460000000  0.4927730000000 1.0
C      1  0.5072370000000  0.5258540000000  0.5072270000000 1.0
C      1  0.4927630000000  0.4741460000000  0.5072270000000 1.0
C      1  0.4848420000000  0.4224800000000  0.5341820000000 1.0
C      1  0.5341820000000  0.4848420000000  0.4224800000000 1.0
C      1  0.4224800000000  0.5341820000000  0.4848420000000 1.0
C      1  0.5151580000000  0.5775200000000  0.5341820000000 1.0
C      1  0.5151580000000  0.4224800000000  0.4658180000000 1.0
C      1  0.4848420000000  0.5775200000000  0.4658180000000 1.0
C      1  0.4658180000000  0.5151580000000  0.4224800000000 1.0
C      1  0.4658180000000  0.4848420000000  0.5775200000000 1.0
C      1  0.5341820000000  0.5151580000000  0.5775200000000 1.0
C      1  0.5775200000000  0.4658180000000  0.4848420000000 1.0
C      1  0.5775200000000  0.5341820000000  0.5151580000000 1.0
C      1  0.4224800000000  0.4658180000000  0.5151580000000 1.0
C      1  0.4848420000000  0.4224800000000  0.4658180000000 1.0
C      1  0.5341820000000  0.4848420000000  0.5775200000000 1.0
C      1  0.4224800000000  0.5341820000000  0.5151580000000 1.0
C      1  0.5151580000000  0.5775200000000  0.4658180000000 1.0
C      1  0.5151580000000  0.4224800000000  0.5341820000000 1.0
C      1  0.4848420000000  0.5775200000000  0.5341820000000 1.0
C      1  0.4658180000000  0.5151580000000  0.5775200000000 1.0
C      1  0.4658180000000  0.4848420000000  0.4224800000000 1.0
C      1  0.5341820000000  0.5151580000000  0.4224800000000 1.0
C      1  0.5775200000000  0.4658180000000  0.5151580000000 1.0
C      1  0.5775200000000  0.5341820000000  0.4848420000000 1.0
C      1  0.4224800000000  0.4658180000000  0.4848420000000 1.0
C      1  0.4539690000000  0.5071590000000  0.4642580000000 1.0
C      1  0.4642580000000  0.4539690000000  0.5071590000000 1.0
C      1  0.5071590000000  0.4642580000000  0.4539690000000 1.0
C      1  0.5460310000000  0.4928410000000  0.4642580000000 1.0
C      1  0.5460310000000  0.5071590000000  0.5357420000000 1.0
C      1  0.4539690000000  0.4928410000000  0.5357420000000 1.0
C      1  0.5357420000000  0.5460310000000  0.5071590000000 1.0
C      1  0.5357420000000  0.4539690000000  0.4928410000000 1.0
C      1  0.4642580000000  0.5460310000000  0.4928410000000 1.0
C      1  0.4928410000000  0.5357420000000  0.4539690000000 1.0
C      1  0.4928410000000  0.4642580000000  0.5460310000000 1.0
C      1  0.5071590000000  0.5357420000000  0.5460310000000 1.0
C      1  0.4539690000000  0.5071590000000  0.5357420000000 1.0
C      1  0.4642580000000  0.4539690000000  0.4928410000000 1.0
C      1  0.5071590000000  0.4642580000000  0.5460310000000 1.0
C      1  0.5460310000000  0.4928410000000  0.5357420000000 1.0
C      1  0.5460310000000  0.5071590000000  0.4642580000000 1.0
C      1  0.4539690000000  0.4928410000000  0.4642580000000 1.0
C      1  0.5357420000000  0.5460310000000  0.4928410000000 1.0
C      1  0.5357420000000  0.4539690000000  0.5071590000000 1.0
C      1  0.4642580000000  0.5460310000000  0.5071590000000 1.0
C      1  0.4928410000000  0.5357420000000  0.5460310000000 1.0
C      1  0.4928410000000  0.4642580000000  0.4539690000000 1.0
C      1  0.5071590000000  0.5357420000000  0.4539690000000 1.0
C      1  0.5654450000000  0.5296480000000  0.4408650000000 1.0
C      1  0.4408650000000  0.5654450000000  0.5296480000000 1.0
C      1  0.5296480000000  0.4408650000000  0.5654450000000 1.0
C      1  0.4345550000000  0.4703520000000  0.4408650000000 1.0
C      1  0.4345550000000  0.5296480000000  0.5591350000000 1.0
C      1  0.5654450000000  0.4703520000000  0.5591350000000 1.0
C      1  0.5591350000000  0.4345550000000  0.5296480000000 1.0
C      1  0.5591350000000  0.5654450000000  0.4703520000000 1.0
C      1  0.4408650000000  0.4345550000000  0.4703520000000 1.0
C      1  0.4703520000000  0.5591350000000  0.5654450000000 1.0
C      1  0.4703520000000  0.4408650000000  0.4345550000000 1.0
C      1  0.5296480000000  0.5591350000000  0.4345550000000 1.0
C      1  0.5654450000000  0.5296480000000  0.5591350000000 1.0
C      1  0.4408650000000  0.5654450000000  0.4703520000000 1.0
C      1  0.5296480000000  0.4408650000000  0.4345550000000 1.0
C      1  0.4345550000000  0.4703520000000  0.5591350000000 1.0
C      1  0.4345550000000  0.5296480000000  0.4408650000000 1.0
C      1  0.5654450000000  0.4703520000000  0.4408650000000 1.0
C      1  0.5591350000000  0.4345550000000  0.4703520000000 1.0
C      1  0.5591350000000  0.5654450000000  0.5296480000000 1.0
C      1  0.4408650000000  0.4345550000000  0.5296480000000 1.0
C      1  0.4703520000000  0.5591350000000  0.4345550000000 1.0
C      1  0.4703520000000  0.4408650000000  0.5654450000000 1.0
C      1  0.5296480000000  0.5591350000000  0.5654450000000 1.0
C      1  0.4929990000000  0.5071330000000  0.4196390000000 1.0
C      1  0.4196390000000  0.4929990000000  0.5071330000000 1.0
C      1  0.5071330000000  0.4196390000000  0.4929990000000 1.0
C      1  0.5070010000000  0.4928670000000  0.4196390000000 1.0
C      1  0.5070010000000  0.5071330000000  0.5803610000000 1.0
C      1  0.4929990000000  0.4928670000000  0.5803610000000 1.0
C      1  0.5803610000000  0.5070010000000  0.5071330000000 1.0
C      1  0.5803610000000  0.4929990000000  0.4928670000000 1.0
C      1  0.4196390000000  0.5070010000000  0.4928670000000 1.0
C      1  0.4928670000000  0.5803610000000  0.4929990000000 1.0
C      1  0.4928670000000  0.4196390000000  0.5070010000000 1.0
C      1  0.5071330000000  0.5803610000000  0.5070010000000 1.0
C      1  0.4929990000000  0.5071330000000  0.5803610000000 1.0
C      1  0.4196390000000  0.4929990000000  0.4928670000000 1.0
C      1  0.5071330000000  0.4196390000000  0.5070010000000 1.0
C      1  0.5070010000000  0.4928670000000  0.5803610000000 1.0
C      1  0.5070010000000  0.5071330000000  0.4196390000000 1.0
C      1  0.4929990000000  0.4928670000000  0.4196390000000 1.0
C      1  0.5803610000000  0.5070010000000  0.4928670000000 1.0
C      1  0.5803610000000  0.4929990000000  0.5071330000000 1.0
C      1  0.4196390000000  0.5070010000000  0.5071330000000 1.0
C      1  0.4928670000000  0.5803610000000  0.5070010000000 1.0
C      1  0.4928670000000  0.4196390000000  0.4929990000000 1.0
C      1  0.5071330000000  0.5803610000000  0.4929990000000 1.0
C      1  0.4276240000000  0.4538370000000  0.4651810000000 1.0
C      1  0.4651810000000  0.4276240000000  0.4538370000000 1.0
C      1  0.4538370000000  0.4651810000000  0.4276240000000 1.0
C      1  0.5723760000000  0.5461630000000  0.4651810000000 1.0
C      1  0.5723760000000  0.4538370000000  0.5348190000000 1.0
C      1  0.4276240000000  0.5461630000000  0.5348190000000 1.0
C      1  0.5348190000000  0.5723760000000  0.4538370000000 1.0
C      1  0.5348190000000  0.4276240000000  0.5461630000000 1.0
C      1  0.4651810000000  0.5723760000000  0.5461630000000 1.0
C      1  0.5461630000000  0.5348190000000  0.4276240000000 1.0
C      1  0.5461630000000  0.4651810000000  0.5723760000000 1.0
C      1  0.4538370000000  0.5348190000000  0.5723760000000 1.0
C      1  0.4276240000000  0.4538370000000  0.5348190000000 1.0
C      1  0.4651810000000  0.4276240000000  0.5461630000000 1.0
C      1  0.4538370000000  0.4651810000000  0.5723760000000 1.0
C      1  0.5723760000000  0.5461630000000  0.5348190000000 1.0
C      1  0.5723760000000  0.4538370000000  0.4651810000000 1.0
C      1  0.4276240000000  0.5461630000000  0.4651810000000 1.0
C      1  0.5348190000000  0.5723760000000  0.5461630000000 1.0
C      1  0.5348190000000  0.4276240000000  0.4538370000000 1.0
C      1  0.4651810000000  0.5723760000000  0.4538370000000 1.0
C      1  0.5461630000000  0.5348190000000  0.5723760000000 1.0
C      1  0.5461630000000  0.4651810000000  0.4276240000000 1.0
C      1  0.4538370000000  0.5348190000000  0.4276240000000 1.0
C      1  0.5759300000000  0.4669770000000  0.4703340000000 1.0
C      1  0.4703340000000  0.5759300000000  0.4669770000000 1.0
C      1  0.4669770000000  0.4703340000000  0.5759300000000 1.0
C      1  0.4240700000000  0.5330230000000  0.4703340000000 1.0
C      1  0.4240700000000  0.4669770000000  0.5296660000000 1.0
C      1  0.5759300000000  0.5330230000000  0.5296660000000 1.0
C      1  0.5296660000000  0.4240700000000  0.4669770000000 1.0
C      1  0.5296660000000  0.5759300000000  0.5330230000000 1.0
C      1  0.4703340000000  0.4240700000000  0.5330230000000 1.0
C      1  0.5330230000000  0.5296660000000  0.5759300000000 1.0
C      1  0.5330230000000  0.4703340000000  0.4240700000000 1.0
C      1  0.4669770000000  0.5296660000000  0.4240700000000 1.0
C      1  0.5759300000000  0.4669770000000  0.5296660000000 1.0
C      1  0.4703340000000  0.5759300000000  0.5330230000000 1.0
C      1  0.4669770000000  0.4703340000000  0.4240700000000 1.0
C      1  0.4240700000000  0.5330230000000  0.5296660000000 1.0
C      1  0.4240700000000  0.4669770000000  0.4703340000000 1.0
C      1  0.5759300000000  0.5330230000000  0.4703340000000 1.0
C      1  0.5296660000000  0.4240700000000  0.5330230000000 1.0
C      1  0.5296660000000  0.5759300000000  0.4669770000000 1.0
C      1  0.4703340000000  0.4240700000000  0.4669770000000 1.0
C      1  0.5330230000000  0.5296660000000  0.4240700000000 1.0
C      1  0.5330230000000  0.4703340000000  0.5759300000000 1.0
C      1  0.4669770000000  0.5296660000000  0.5759300000000 1.0
C      1  0.5460080000000  0.5195670000000  0.5297550000000 1.0
C      1  0.5297550000000  0.5460080000000  0.5195670000000 1.0
C      1  0.5195670000000  0.5297550000000  0.5460080000000 1.0
C      1  0.4539920000000  0.4804330000000  0.5297550000000 1.0
C      1  0.4539920000000  0.5195670000000  0.4702450000000 1.0
C      1  0.5460080000000  0.4804330000000  0.4702450000000 1.0
C      1  0.4702450000000  0.4539920000000  0.5195670000000 1.0
C      1  0.4702450000000  0.5460080000000  0.4804330000000 1.0
C      1  0.5297550000000  0.4539920000000  0.4804330000000 1.0
C      1  0.4804330000000  0.4702450000000  0.5460080000000 1.0
C      1  0.4804330000000  0.5297550000000  0.4539920000000 1.0
C      1  0.5195670000000  0.4702450000000  0.4539920000000 1.0
C      1  0.5460080000000  0.5195670000000  0.4702450000000 1.0
C      1  0.5297550000000  0.5460080000000  0.4804330000000 1.0
C      1  0.5195670000000  0.5297550000000  0.4539920000000 1.0
C      1  0.4539920000000  0.4804330000000  0.4702450000000 1.0
C      1  0.4539920000000  0.5195670000000  0.5297550000000 1.0
C      1  0.5460080000000  0.4804330000000  0.5297550000000 1.0
C      1  0.4702450000000  0.4539920000000  0.4804330000000 1.0
C      1  0.4702450000000  0.5460080000000  0.5195670000000 1.0
C      1  0.5297550000000  0.4539920000000  0.5195670000000 1.0
C      1  0.4804330000000  0.4702450000000  0.4539920000000 1.0
C      1  0.4804330000000  0.5297550000000  0.5460080000000 1.0
C      1  0.5195670000000  0.4702450000000  0.5460080000000 1.0
C      1  0.4554550000000  0.5195970000000  0.4845850000000 1.0
C      1  0.4845850000000  0.4554550000000  0.5195970000000 1.0
C      1  0.5195970000000  0.4845850000000  0.4554550000000 1.0
C      1  0.5445450000000  0.4804030000000  0.4845850000000 1.0
C      1  0.5445450000000  0.5195970000000  0.5154150000000 1.0
C      1  0.4554550000000  0.4804030000000  0.5154150000000 1.0
C      1  0.5154150000000  0.5445450000000  0.5195970000000 1.0
C      1  0.5154150000000  0.4554550000000  0.4804030000000 1.0
C      1  0.4845850000000  0.5445450000000  0.4804030000000 1.0
C      1  0.4804030000000  0.5154150000000  0.4554550000000 1.0
C      1  0.4804030000000  0.4845850000000  0.5445450000000 1.0
C      1  0.5195970000000  0.5154150000000  0.5445450000000 1.0
C      1  0.4554550000000  0.5195970000000  0.5154150000000 1.0
C      1  0.4845850000000  0.4554550000000  0.4804030000000 1.0
C      1  0.5195970000000  0.4845850000000  0.5445450000000 1.0
C      1  0.5445450000000  0.4804030000000  0.5154150000000 1.0
C      1  0.5445450000000  0.5195970000000  0.4845850000000 1.0
C      1  0.4554550000000  0.4804030000000  0.4845850000000 1.0
C      1  0.5154150000000  0.5445450000000  0.4804030000000 1.0
C      1  0.5154150000000  0.4554550000000  0.5195970000000 1.0
C      1  0.4845850000000  0.5445450000000  0.5195970000000 1.0
C      1  0.4804030000000  0.5154150000000  0.5445450000000 1.0
C      1  0.4804030000000  0.4845850000000  0.4554550000000 1.0
C      1  0.5195970000000  0.5154150000000  0.4554550000000 1.0
C      1  0.4632260000000  0.4260190000000  0.4805770000000 1.0
C      1  0.4805770000000  0.4632260000000  0.4260190000000 1.0
C      1  0.4260190000000  0.4805770000000  0.4632260000000 1.0
C      1  0.5367740000000  0.5739810000000  0.4805770000000 1.0
C      1  0.5367740000000  0.4260190000000  0.5194230000000 1.0
C      1  0.4632260000000  0.5739810000000  0.5194230000000 1.0
C      1  0.5194230000000  0.5367740000000  0.4260190000000 1.0
C      1  0.5194230000000  0.4632260000000  0.5739810000000 1.0
C      1  0.4805770000000  0.5367740000000  0.5739810000000 1.0
C      1  0.5739810000000  0.5194230000000  0.4632260000000 1.0
C      1  0.5739810000000  0.4805770000000  0.5367740000000 1.0
C      1  0.4260190000000  0.5194230000000  0.5367740000000 1.0
C      1  0.4632260000000  0.4260190000000  0.5194230000000 1.0
C      1  0.4805770000000  0.4632260000000  0.5739810000000 1.0
C      1  0.4260190000000  0.4805770000000  0.5367740000000 1.0
C      1  0.5367740000000  0.5739810000000  0.5194230000000 1.0
C      1  0.5367740000000  0.4260190000000  0.4805770000000 1.0
C      1  0.4632260000000  0.5739810000000  0.4805770000000 1.0
C      1  0.5194230000000  0.5367740000000  0.5739810000000 1.0
C      1  0.5194230000000  0.4632260000000  0.4260190000000 1.0
C      1  0.4805770000000  0.5367740000000  0.4260190000000 1.0
C      1  0.5739810000000  0.5194230000000  0.5367740000000 1.0
C      1  0.5739810000000  0.4805770000000  0.4632260000000 1.0
C      1  0.4260190000000  0.5194230000000  0.4632260000000 1.0
C      1  0.5689540000000  0.5186710000000  0.5506240000000 1.0
C      1  0.5506240000000  0.5689540000000  0.5186710000000 1.0
C      1  0.5186710000000  0.5506240000000  0.5689540000000 1.0
C      1  0.4310460000000  0.4813290000000  0.5506240000000 1.0
C      1  0.4310460000000  0.5186710000000  0.4493760000000 1.0
C      1  0.5689540000000  0.4813290000000  0.4493760000000 1.0
C      1  0.4493760000000  0.4310460000000  0.5186710000000 1.0
C      1  0.4493760000000  0.5689540000000  0.4813290000000 1.0
C      1  0.5506240000000  0.4310460000000  0.4813290000000 1.0
C      1  0.4813290000000  0.4493760000000  0.5689540000000 1.0
C      1  0.4813290000000  0.5506240000000  0.4310460000000 1.0
C      1  0.5186710000000  0.4493760000000  0.4310460000000 1.0
C      1  0.5689540000000  0.5186710000000  0.4493760000000 1.0
C      1  0.5506240000000  0.5689540000000  0.4813290000000 1.0
C      1  0.5186710000000  0.5506240000000  0.4310460000000 1.0
C      1  0.4310460000000  0.4813290000000  0.4493760000000 1.0
C      1  0.4310460000000  0.5186710000000  0.5506240000000 1.0
C      1  0.5689540000000  0.4813290000000  0.5506240000000 1.0
C      1  0.4493760000000  0.4310460000000  0.4813290000000 1.0
C      1  0.4493760000000  0.5689540000000  0.5186710000000 1.0
C      1  0.5506240000000  0.4310460000000  0.5186710000000 1.0
C      1  0.4813290000000  0.4493760000000  0.4310460000000 1.0
C      1  0.4813290000000  0.5506240000000  0.5689540000000 1.0
C      1  0.5186710000000  0.4493760000000  0.5689540000000 1.0
C      1  0.4429200000000  0.4396560000000  0.5076330000000 1.0
C      1  0.5076330000000  0.4429200000000  0.4396560000000 1.0
C      1  0.4396560000000  0.5076330000000  0.4429200000000 1.0
C      1  0.5570800000000  0.5603440000000  0.5076330000000 1.0
C      1  0.5570800000000  0.4396560000000  0.4923670000000 1.0
C      1  0.4429200000000  0.5603440000000  0.4923670000000 1.0
C      1  0.4923670000000  0.5570800000000  0.4396560000000 1.0
C      1  0.4923670000000  0.4429200000000  0.5603440000000 1.0
C      1  0.5076330000000  0.5570800000000  0.5603440000000 1.0
C      1  0.5603440000000  0.4923670000000  0.4429200000000 1.0
C      1  0.5603440000000  0.5076330000000  0.5570800000000 1.0
C      1  0.4396560000000  0.4923670000000  0.5570800000000 1.0
C      1  0.4429200000000  0.4396560000000  0.4923670000000 1.0
C      1  0.5076330000000  0.4429200000000  0.5603440000000 1.0
C      1  0.4396560000000  0.5076330000000  0.5570800000000 1.0
C      1  0.5570800000000  0.5603440000000  0.4923670000000 1.0
C      1  0.5570800000000  0.4396560000000  0.5076330000000 1.0
C      1  0.4429200000000  0.5603440000000  0.5076330000000 1.0
C      1  0.4923670000000  0.5570800000000  0.5603440000000 1.0
C      1  0.4923670000000  0.4429200000000  0.4396560000000 1.0
C      1  0.5076330000000  0.5570800000000  0.4396560000000 1.0
C      1  0.5603440000000  0.4923670000000  0.5570800000000 1.0
C      1  0.5603440000000  0.5076330000000  0.4429200000000 1.0
C      1  0.4396560000000  0.4923670000000  0.4429200000000 1.0
C      1  0.5076050000000  0.5274130000000  0.4274180000000 1.0
C      1  0.4274180000000  0.5076050000000  0.5274130000000 1.0
C      1  0.5274130000000  0.4274180000000  0.5076050000000 1.0
C      1  0.4923950000000  0.4725870000000  0.4274180000000 1.0
C      1  0.4923950000000  0.5274130000000  0.5725820000000 1.0
C      1  0.5076050000000  0.4725870000000  0.5725820000000 1.0
C      1  0.5725820000000  0.4923950000000  0.5274130000000 1.0
C      1  0.5725820000000  0.5076050000000  0.4725870000000 1.0
C      1  0.4274180000000  0.4923950000000  0.4725870000000 1.0
C      1  0.4725870000000  0.5725820000000  0.5076050000000 1.0
C      1  0.4725870000000  0.4274180000000  0.4923950000000 1.0
C      1  0.5274130000000  0.5725820000000  0.4923950000000 1.0
C      1  0.5076050000000  0.5274130000000  0.5725820000000 1.0
C      1  0.4274180000000  0.5076050000000  0.4725870000000 1.0
C      1  0.5274130000000  0.4274180000000  0.4923950000000 1.0
C      1  0.4923950000000  0.4725870000000  0.5725820000000 1.0
C      1  0.4923950000000  0.5274130000000  0.4274180000000 1.0
C      1  0.5076050000000  0.4725870000000  0.4274180000000 1.0
C      1  0.5725820000000  0.4923950000000  0.4725870000000 1.0
C      1  0.5725820000000  0.5076050000000  0.5274130000000 1.0
C      1  0.4274180000000  0.4923950000000  0.5274130000000 1.0
C      1  0.4725870000000  0.5725820000000  0.4923950000000 1.0
C      1  0.4725870000000  0.4274180000000  0.5076050000000 1.0
C      1  0.5274130000000  0.5725820000000  0.5076050000000 1.0
C      1  0.5433940000000  0.5576480000000  0.5624480000000 1.0
C      1  0.5624480000000  0.5433940000000  0.5576480000000 1.0
C      1  0.5576480000000  0.5624480000000  0.5433940000000 1.0
C      1  0.4566060000000  0.4423520000000  0.5624480000000 1.0
C      1  0.4566060000000  0.5576480000000  0.4375520000000 1.0
C      1  0.5433940000000  0.4423520000000  0.4375520000000 1.0
C      1  0.4375520000000  0.4566060000000  0.5576480000000 1.0
C      1  0.4375520000000  0.5433940000000  0.4423520000000 1.0
C      1  0.5624480000000  0.4566060000000  0.4423520000000 1.0
C      1  0.4423520000000  0.4375520000000  0.5433940000000 1.0
C      1  0.4423520000000  0.5624480000000  0.4566060000000 1.0
C      1  0.5576480000000  0.4375520000000  0.4566060000000 1.0
C      1  0.5433940000000  0.5576480000000  0.4375520000000 1.0
C      1  0.5624480000000  0.5433940000000  0.4423520000000 1.0
C      1  0.5576480000000  0.5624480000000  0.4566060000000 1.0
C      1  0.4566060000000  0.4423520000000  0.4375520000000 1.0
C      1  0.4566060000000  0.5576480000000  0.5624480000000 1.0
C      1  0.5433940000000  0.4423520000000  0.5624480000000 1.0
C      1  0.4375520000000  0.4566060000000  0.4423520000000 1.0
C      1  0.4375520000000  0.5433940000000  0.5576480000000 1.0
C      1  0.5624480000000  0.4566060000000  0.5576480000000 1.0
C      1  0.4423520000000  0.4375520000000  0.4566060000000 1.0
C      1  0.4423520000000  0.5624480000000  0.5433940000000 1.0
C      1  0.5576480000000  0.4375520000000  0.5433940000000 1.0
C      1  0.5568730000000  0.5123940000000  0.5712960000000 1.0
C      1  0.5712960000000  0.5568730000000  0.5123940000000 1.0
C      1  0.5123940000000  0.5712960000000  0.5568730000000 1.0
C      1  0.4431270000000  0.4876060000000  0.5712960000000 1.0
C      1  0.4431270000000  0.5123940000000  0.4287040000000 1.0
C      1  0.5568730000000  0.4876060000000  0.4287040000000 1.0
C      1  0.4287040000000  0.4431270000000  0.5123940000000 1.0
C      1  0.4287040000000  0.5568730000000  0.4876060000000 1.0
C      1  0.5712960000000  0.4431270000000  0.4876060000000 1.0
C      1  0.4876060000000  0.4287040000000  0.5568730000000 1.0
C      1  0.4876060000000  0.5712960000000  0.4431270000000 1.0
C      1  0.5123940000000  0.4287040000000  0.4431270000000 1.0
C      1  0.5568730000000  0.5123940000000  0.4287040000000 1.0
C      1  0.5712960000000  0.5568730000000  0.4876060000000 1.0
C      1  0.5123940000000  0.5712960000000  0.4431270000000 1.0
C      1  0.4431270000000  0.4876060000000  0.4287040000000 1.0
C      1  0.4431270000000  0.5123940000000  0.5712960000000 1.0
C      1  0.5568730000000  0.4876060000000  0.5712960000000 1.0
C      1  0.4287040000000  0.4431270000000  0.4876060000000 1.0
C      1  0.4287040000000  0.5568730000000  0.5123940000000 1.0
C      1  0.5712960000000  0.4431270000000  0.5123940000000 1.0
C      1  0.4876060000000  0.4287040000000  0.4431270000000 1.0
C      1  0.4876060000000  0.5712960000000  0.5568730000000 1.0
C      1  0.5123940000000  0.4287040000000  0.5568730000000 1.0
C      1  0.5535090000000  0.5310490000000  0.5115240000000 1.0
C      1  0.5115240000000  0.5535090000000  0.5310490000000 1.0
C      1  0.5310490000000  0.5115240000000  0.5535090000000 1.0
C      1  0.4464910000000  0.4689510000000  0.5115240000000 1.0
C      1  0.4464910000000  0.5310490000000  0.4884760000000 1.0
C      1  0.5535090000000  0.4689510000000  0.4884760000000 1.0
C      1  0.4884760000000  0.4464910000000  0.5310490000000 1.0
C      1  0.4884760000000  0.5535090000000  0.4689510000000 1.0
C      1  0.5115240000000  0.4464910000000  0.4689510000000 1.0
C      1  0.4689510000000  0.4884760000000  0.5535090000000 1.0
C      1  0.4689510000000  0.5115240000000  0.4464910000000 1.0
C      1  0.5310490000000  0.4884760000000  0.4464910000000 1.0
C      1  0.5535090000000  0.5310490000000  0.4884760000000 1.0
C      1  0.5115240000000  0.5535090000000  0.4689510000000 1.0
C      1  0.5310490000000  0.5115240000000  0.4464910000000 1.0
C      1  0.4464910000000  0.4689510000000  0.4884760000000 1.0
C      1  0.4464910000000  0.5310490000000  0.5115240000000 1.0
C      1  0.5535090000000  0.4689510000000  0.5115240000000 1.0
C      1  0.4884760000000  0.4464910000000  0.4689510000000 1.0
C      1  0.4884760000000  0.5535090000000  0.5310490000000 1.0
C      1  0.5115240000000  0.4464910000000  0.5310490000000 1.0
C      1  0.4689510000000  0.4884760000000  0.4464910000000 1.0
C      1  0.4689510000000  0.5115240000000  0.5535090000000 1.0
C      1  0.5310490000000  0.4884760000000  0.5535090000000 1.0
C      1  0.5080020000000  0.5532730000000  0.4923600000000 1.0
C      1  0.4923600000000  0.5080020000000  0.5532730000000 1.0
C      1  0.5532730000000  0.4923600000000  0.5080020000000 1.0
C      1  0.4919980000000  0.4467270000000  0.4923600000000 1.0
C      1  0.4919980000000  0.5532730000000  0.5076400000000 1.0
C      1  0.5080020000000  0.4467270000000  0.5076400000000 1.0
C      1  0.5076400000000  0.4919980000000  0.5532730000000 1.0
C      1  0.5076400000000  0.5080020000000  0.4467270000000 1.0
C      1  0.4923600000000  0.4919980000000  0.4467270000000 1.0
C      1  0.4467270000000  0.5076400000000  0.5080020000000 1.0
C      1  0.4467270000000  0.4923600000000  0.4919980000000 1.0
C      1  0.5532730000000  0.5076400000000  0.4919980000000 1.0
C      1  0.5080020000000  0.5532730000000  0.5076400000000 1.0
C      1  0.4923600000000  0.5080020000000  0.4467270000000 1.0
C      1  0.5532730000000  0.4923600000000  0.4919980000000 1.0
C      1  0.4919980000000  0.4467270000000  0.5076400000000 1.0
C      1  0.4919980000000  0.5532730000000  0.4923600000000 1.0
C      1  0.5080020000000  0.4467270000000  0.4923600000000 1.0
C      1  0.5076400000000  0.4919980000000  0.4467270000000 1.0
C      1  0.5076400000000  0.5080020000000  0.5532730000000 1.0
C      1  0.4923600000000  0.4919980000000  0.5532730000000 1.0
C      1  0.4467270000000  0.5076400000000  0.4919980000000 1.0
C      1  0.4467270000000  0.4923600000000  0.5080020000000 1.0
C      1  0.5532730000000  0.5076400000000  0.5080020000000 1.0
C      1  0.4552580000000  0.5078280000000  0.4496140000000 1.0
C      1  0.4496140000000  0.4552580000000  0.5078280000000 1.0
C      1  0.5078280000000  0.4496140000000  0.4552580000000 1.0
C      1  0.5447420000000  0.4921720000000  0.4496140000000 1.0
C      1  0.5447420000000  0.5078280000000  0.5503860000000 1.0
C      1  0.4552580000000  0.4921720000000  0.5503860000000 1.0
C      1  0.5503860000000  0.5447420000000  0.5078280000000 1.0
C      1  0.5503860000000  0.4552580000000  0.4921720000000 1.0
C      1  0.4496140000000  0.5447420000000  0.4921720000000 1.0
C      1  0.4921720000000  0.5503860000000  0.4552580000000 1.0
C      1  0.4921720000000  0.4496140000000  0.5447420000000 1.0
C      1  0.5078280000000  0.5503860000000  0.5447420000000 1.0
C      1  0.4552580000000  0.5078280000000  0.5503860000000 1.0
C      1  0.4496140000000  0.4552580000000  0.4921720000000 1.0
C      1  0.5078280000000  0.4496140000000  0.5447420000000 1.0
C      1  0.5447420000000  0.4921720000000  0.5503860000000 1.0
C      1  0.5447420000000  0.5078280000000  0.4496140000000 1.0
C      1  0.4552580000000  0.4921720000000  0.4496140000000 1.0
C      1  0.5503860000000  0.5447420000000  0.4921720000000 1.0
C      1  0.5503860000000  0.4552580000000  0.5078280000000 1.0
C      1  0.4496140000000  0.5447420000000  0.5078280000000 1.0
C      1  0.4921720000000  0.5503860000000  0.5447420000000 1.0
C      1  0.4921720000000  0.4496140000000  0.4552580000000 1.0
C      1  0.5078280000000  0.5503860000000  0.4552580000000 1.0
C      1  0.5160820000000  0.4713050000000  0.4818450000000 1.0
C      1  0.4818450000000  0.5160810000000  0.4713050000000 1.0
C      1  0.4713050000000  0.4818450000000  0.5160810000000 1.0
C      1  0.4839180000000  0.5286950000000  0.4818450000000 1.0
C      1  0.4839190000000  0.4713050000000  0.5181550000000 1.0
C      1  0.5160820000000  0.5286950000000  0.5181550000000 1.0
C      1  0.5181550000000  0.4839190000000  0.4713050000000 1.0
C      1  0.5181550000000  0.5160820000000  0.5286950000000 1.0
C      1  0.4818450000000  0.4839180000000  0.5286950000000 1.0
C      1  0.5286950000000  0.5181550000000  0.5160810000000 1.0
C      1  0.5286950000000  0.4818450000000  0.4839180000000 1.0
C      1  0.4713050000000  0.5181550000000  0.4839180000000 1.0
C      1  0.5160810000000  0.4713050000000  0.5181550000000 1.0
C      1  0.4818450000000  0.5160810000000  0.5286950000000 1.0
C      1  0.4713050000000  0.4818450000000  0.4839190000000 1.0
C      1  0.4839180000000  0.5286950000000  0.5181550000000 1.0
C      1  0.4839190000000  0.4713050000000  0.4818450000000 1.0
C      1  0.5160820000000  0.5286950000000  0.4818450000000 1.0
C      1  0.5181550000000  0.4839190000000  0.5286950000000 1.0
C      1  0.5181550000000  0.5160820000000  0.4713050000000 1.0
C      1  0.4818450000000  0.4839180000000  0.4713050000000 1.0
C      1  0.5286950000000  0.5181550000000  0.4839190000000 1.0
C      1  0.5286950000000  0.4818450000000  0.5160820000000 1.0
C      1  0.4713050000000  0.5181550000000  0.5160820000000 1.0
C      1  0.4318030000000  0.4878540000000  0.5134830000000 1.0
C      1  0.5134830000000  0.4318030000000  0.4878540000000 1.0
C      1  0.4878540000000  0.5134830000000  0.4318030000000 1.0
C      1  0.5681970000000  0.5121460000000  0.5134830000000 1.0
C      1  0.5681970000000  0.4878540000000  0.4865170000000 1.0
C      1  0.4318030000000  0.5121460000000  0.4865170000000 1.0
C      1  0.4865170000000  0.5681970000000  0.4878540000000 1.0
C      1  0.4865170000000  0.4318030000000  0.5121460000000 1.0
C      1  0.5134830000000  0.5681970000000  0.5121460000000 1.0
C      1  0.5121460000000  0.4865170000000  0.4318030000000 1.0
C      1  0.5121460000000  0.5134830000000  0.5681970000000 1.0
C      1  0.4878540000000  0.4865170000000  0.5681970000000 1.0
C      1  0.4318030000000  0.4878540000000  0.4865170000000 1.0
C      1  0.5134830000000  0.4318030000000  0.5121460000000 1.0
C      1  0.4878540000000  0.5134830000000  0.5681970000000 1.0
C      1  0.5681970000000  0.5121460000000  0.4865170000000 1.0
C      1  0.5681970000000  0.4878540000000  0.5134830000000 1.0
C      1  0.4318030000000  0.5121460000000  0.5134830000000 1.0
C      1  0.4865170000000  0.5681970000000  0.5121460000000 1.0
C      1  0.4865170000000  0.4318030000000  0.4878540000000 1.0
C      1  0.5134830000000  0.5681970000000  0.4878540000000 1.0
C      1  0.5121460000000  0.4865170000000  0.5681970000000 1.0
C      1  0.5121460000000  0.5134830000000  0.4318030000000 1.0
C      1  0.4878540000000  0.4865170000000  0.4318030000000 1.0
C      1  0.5674630000000  0.4740860000000  0.5082620000000 1.0
C      1  0.5082620000000  0.5674630000000  0.4740860000000 1.0
C      1  0.4740860000000  0.5082620000000  0.5674630000000 1.0
C      1  0.4325370000000  0.5259140000000  0.5082620000000 1.0
C      1  0.4325370000000  0.4740860000000  0.4917380000000 1.0
C      1  0.5674630000000  0.5259140000000  0.4917380000000 1.0
C      1  0.4917380000000  0.4325370000000  0.4740860000000 1.0
C      1  0.4917380000000  0.5674630000000  0.5259140000000 1.0
C      1  0.5082620000000  0.4325370000000  0.5259140000000 1.0
C      1  0.5259140000000  0.4917380000000  0.5674630000000 1.0
C      1  0.5259140000000  0.5082620000000  0.4325370000000 1.0
C      1  0.4740860000000  0.4917380000000  0.4325370000000 1.0
C      1  0.5674630000000  0.4740860000000  0.4917380000000 1.0
C      1  0.5082620000000  0.5674630000000  0.5259140000000 1.0
C      1  0.4740860000000  0.5082620000000  0.4325370000000 1.0
C      1  0.4325370000000  0.5259140000000  0.4917380000000 1.0
C      1  0.4325370000000  0.4740860000000  0.5082620000000 1.0
C      1  0.5674630000000  0.5259140000000  0.5082620000000 1.0
C      1  0.4917380000000  0.4325370000000  0.5259140000000 1.0
C      1  0.4917380000000  0.5674630000000  0.4740860000000 1.0
C      1  0.5082620000000  0.4325370000000  0.4740860000000 1.0
C      1  0.5259140000000  0.4917380000000  0.4325370000000 1.0
C      1  0.5259140000000  0.5082620000000  0.5674630000000 1.0
C      1  0.4740860000000  0.4917380000000  0.5674630000000 1.0
C      1  0.5570140000000  0.5258590000000  0.5699670000000 1.0
C      1  0.5699670000000  0.5570140000000  0.5258590000000 1.0
C      1  0.5258590000000  0.5699670000000  0.5570140000000 1.0
C      1  0.4429860000000  0.4741410000000  0.5699670000000 1.0
C      1  0.4429860000000  0.5258590000000  0.4300330000000 1.0
C      1  0.5570140000000  0.4741410000000  0.4300330000000 1.0
C      1  0.4300330000000  0.4429860000000  0.5258590000000 1.0
C      1  0.4300330000000  0.5570140000000  0.4741410000000 1.0
C      1  0.5699670000000  0.4429860000000  0.4741410000000 1.0
C      1  0.4741410000000  0.4300330000000  0.5570140000000 1.0
C      1  0.4741410000000  0.5699670000000  0.4429860000000 1.0
C      1  0.5258590000000  0.4300330000000  0.4429860000000 1.0
C      1  0.5570140000000  0.5258590000000  0.4300330000000 1.0
C      1  0.5699670000000  0.5570140000000  0.4741410000000 1.0
C      1  0.5258590000000  0.5699670000000  0.4429860000000 1.0
C      1  0.4429860000000  0.4741410000000  0.4300330000000 1.0
C      1  0.4429860000000  0.5258590000000  0.5699670000000 1.0
C      1  0.5570140000000  0.4741410000000  0.5699670000000 1.0
C      1  0.4300330000000  0.4429860000000  0.4741410000000 1.0
C      1  0.4300330000000  0.5570140000000  0.5258590000000 1.0
C      1  0.5699670000000  0.4429860000000  0.5258590000000 1.0
C      1  0.4741410000000  0.4300330000000  0.4429860000000 1.0
C      1  0.4741410000000  0.5699670000000  0.5570140000000 1.0
C      1  0.5258590000000  0.4300330000000  0.5570140000000 1.0
C      1  0.5319440000000  0.4628180000000  0.4564890000000 1.0
C      1  0.4564890000000  0.5319440000000  0.4628180000000 1.0
C      1  0.4628180000000  0.4564890000000  0.5319440000000 1.0
C      1  0.4680560000000  0.5371820000000  0.4564890000000 1.0
C      1  0.4680560000000  0.4628180000000  0.5435110000000 1.0
C      1  0.5319440000000  0.5371820000000  0.5435110000000 1.0
C      1  0.5435110000000  0.4680560000000  0.4628180000000 1.0
C      1  0.5435110000000  0.5319440000000  0.5371820000000 1.0
C      1  0.4564890000000  0.4680560000000  0.5371820000000 1.0
C      1  0.5371820000000  0.5435110000000  0.5319440000000 1.0
C      1  0.5371820000000  0.4564890000000  0.4680560000000 1.0
C      1  0.4628180000000  0.5435110000000  0.4680560000000 1.0
C      1  0.5319440000000  0.4628180000000  0.5435110000000 1.0
C      1  0.4564890000000  0.5319440000000  0.5371820000000 1.0
C      1  0.4628180000000  0.4564890000000  0.4680560000000 1.0
C      1  0.4680560000000  0.5371820000000  0.5435110000000 1.0
C      1  0.4680560000000  0.4628180000000  0.4564890000000 1.0
C      1  0.5319440000000  0.5371820000000  0.4564890000000 1.0
C      1  0.5435110000000  0.4680560000000  0.5371820000000 1.0
C      1  0.5435110000000  0.5319440000000  0.4628180000000 1.0
C      1  0.4564890000000  0.4680560000000  0.4628180000000 1.0
C      1  0.5371820000000  0.5435110000000  0.4680560000000 1.0
C      1  0.5371820000000  0.4564890000000  0.5319440000000 1.0
C      1  0.4628180000000  0.5435110000000  0.5319440000000 1.0
END
