TITL C-1887023-9817-68 -8.73000119235127e-07 1000000 -2877.69320647864 0 0 400 (C2) n - 1
REM
REM in /nfs/bkarasulu/CARBON/AIRSS/Generating-Clusters/GAP-ML-2020/Higher-Symm/Selected-Sizes/TryA-Only_Ih-Symm/Larger-Clusters
REM
REM
REM
REM
REM
REM ./C.cell (2cf5181f0f1d4d5b12b972d32ad12063)
REM
REM compiler GCC version 9.2.1 20190827 (Red Hat 9.2.1-1)
REM options -cpp -mtune=generic -march=x86-64 -g -O0 -fpre-include=/usr/include/finclude/math-vector-fortran.h
REM seed 687677392 -174071435 -222247206 -268494475 2060961433 588291093 223050495 172477029 1064264338 -1591170957 -1177611784 -2026921511 -97013036 -1414327900 -765754585 2016623265 1168020186 1179917949 1004075395 -1902303791 1202428417 2115530754 -250104124 1254314104 263172020 635862407 1460150966 1327920157 -1728584008 -838712755 2124704652 425271721 1710546271
REM
CELL 1.54180  100.00000  100.00000  100.00000   90.00000   90.00000   90.00000
LATT -1
SFAC C  
C      1  0.5233930000000  0.5127260000000  0.4390830000000 1.0
C      1  0.4317570000000  0.5249480000000  0.5142900000000 1.0
C      1  0.5116360000000  0.4362580000000  0.5238450000000 1.0
C      1  0.5229980000000  0.4874560000000  0.5609470000000 1.0
C      1  0.4774370000000  0.4875840000000  0.4390830000000 1.0
C      1  0.4778310000000  0.5128570000000  0.5609460000000 1.0
C      1  0.4350650000000  0.4768970000000  0.4875160000000 1.0
C      1  0.5690730000000  0.4753640000000  0.5142910000000 1.0
C      1  0.5657650000000  0.5234140000000  0.4875170000000 1.0
C      1  0.5120340000000  0.5645100000000  0.4769650000000 1.0
C      1  0.4891940000000  0.5640540000000  0.5238440000000 1.0
C      1  0.4887960000000  0.4358010000000  0.4769660000000 1.0
C      1  0.5231550000000  0.4373600000000  0.5131870000000 1.0
C      1  0.4345110000000  0.5129960000000  0.5226730000000 1.0
C      1  0.5117940000000  0.5233910000000  0.4382750000000 1.0
C      1  0.5236800000000  0.5637100000000  0.4876020000000 1.0
C      1  0.4771500000000  0.4366010000000  0.4876030000000 1.0
C      1  0.4776750000000  0.5629520000000  0.5131860000000 1.0
C      1  0.4353480000000  0.4884540000000  0.4773340000000 1.0
C      1  0.5654830000000  0.5118570000000  0.4773350000000 1.0
C      1  0.5663180000000  0.4873160000000  0.5226740000000 1.0
C      1  0.5115650000000  0.4767110000000  0.5621560000000 1.0
C      1  0.4892640000000  0.5236020000000  0.5621560000000 1.0
C      1  0.4890370000000  0.4769190000000  0.4382750000000 1.0
C      1  0.4953270000000  0.4852120000000  0.4509720000000 1.0
C      1  0.4474270000000  0.4954620000000  0.4857870000000 1.0
C      1  0.4851200000000  0.4485590000000  0.4946450000000 1.0
C      1  0.4965150000000  0.5152500000000  0.5497960000000 1.0
C      1  0.5055040000000  0.5150990000000  0.4509720000000 1.0
C      1  0.5043140000000  0.4850630000000  0.5497960000000 1.0
C      1  0.4474050000000  0.5043790000000  0.5149350000000 1.0
C      1  0.5534040000000  0.5048490000000  0.4857890000000 1.0
C      1  0.5534240000000  0.4959330000000  0.5149360000000 1.0
C      1  0.4858480000000  0.5508410000000  0.5064250000000 1.0
C      1  0.5157100000000  0.5517530000000  0.4946450000000 1.0
C      1  0.5149820000000  0.4494710000000  0.5064260000000 1.0
C      1  0.4955070000000  0.4483430000000  0.4856710000000 1.0
C      1  0.4503330000000  0.4833860000000  0.4930320000000 1.0
C      1  0.4851350000000  0.4945690000000  0.4513000000000 1.0
C      1  0.4964030000000  0.5515810000000  0.5154380000000 1.0
C      1  0.5044260000000  0.4487300000000  0.5154390000000 1.0
C      1  0.5053230000000  0.5519690000000  0.4856700000000 1.0
C      1  0.4547630000000  0.5140680000000  0.5077330000000 1.0
C      1  0.5460660000000  0.4862440000000  0.5077340000000 1.0
C      1  0.5504970000000  0.5169250000000  0.4930330000000 1.0
C      1  0.4859960000000  0.5061950000000  0.5490610000000 1.0
C      1  0.5148330000000  0.4941170000000  0.5490610000000 1.0
C      1  0.5156950000000  0.5057410000000  0.4513010000000 1.0
C      1  0.4702550000000  0.5395050000000  0.5668470000000 1.0
C      1  0.5690410000000  0.4693970000000  0.5400150000000 1.0
C      1  0.5395120000000  0.5686370000000  0.4692980000000 1.0
C      1  0.4704900000000  0.4604730000000  0.4331760000000 1.0
C      1  0.5305740000000  0.4608080000000  0.5668480000000 1.0
C      1  0.5303410000000  0.5398380000000  0.4331760000000 1.0
C      1  0.5693940000000  0.5305820000000  0.4607040000000 1.0
C      1  0.4317880000000  0.5309150000000  0.5400140000000 1.0
C      1  0.4314360000000  0.4697290000000  0.4607040000000 1.0
C      1  0.5393500000000  0.4321690000000  0.5312070000000 1.0
C      1  0.4613190000000  0.4316740000000  0.4692990000000 1.0
C      1  0.4614800000000  0.5681430000000  0.5312060000000 1.0
C      1  0.4703400000000  0.5686500000000  0.5399820000000 1.0
C      1  0.5699380000000  0.5398980000000  0.4691240000000 1.0
C      1  0.5392090000000  0.4698550000000  0.5664730000000 1.0
C      1  0.4702680000000  0.4314690000000  0.4605470000000 1.0
C      1  0.5305620000000  0.5688420000000  0.4605460000000 1.0
C      1  0.5304890000000  0.4316620000000  0.5399840000000 1.0
C      1  0.5692150000000  0.4597260000000  0.5320550000000 1.0
C      1  0.4316140000000  0.5405860000000  0.5320530000000 1.0
C      1  0.4308910000000  0.4604130000000  0.4691240000000 1.0
C      1  0.5392290000000  0.5310780000000  0.4340240000000 1.0
C      1  0.4616020000000  0.4692320000000  0.4340240000000 1.0
C      1  0.4616200000000  0.5304570000000  0.5664720000000 1.0
C      1  0.4695640000000  0.5119980000000  0.4607880000000 1.0
C      1  0.4598450000000  0.4687260000000  0.5119380000000 1.0
C      1  0.5123050000000  0.4590940000000  0.4703290000000 1.0
C      1  0.4700970000000  0.4938680000000  0.5364530000000 1.0
C      1  0.5312660000000  0.4883130000000  0.4607890000000 1.0
C      1  0.5307330000000  0.5064440000000  0.5364540000000 1.0
C      1  0.4597020000000  0.5308350000000  0.4899080000000 1.0
C      1  0.5409850000000  0.5315860000000  0.5119380000000 1.0
C      1  0.5411280000000  0.4694770000000  0.4899090000000 1.0
C      1  0.5145660000000  0.5414570000000  0.5307650000000 1.0
C      1  0.4885250000000  0.5412170000000  0.4703280000000 1.0
C      1  0.4862630000000  0.4588550000000  0.5307660000000 1.0
C      1  0.4698910000000  0.4616890000000  0.5060350000000 1.0
C      1  0.4593570000000  0.5111700000000  0.4706720000000 1.0
C      1  0.5123470000000  0.4693510000000  0.4606320000000 1.0
C      1  0.4698780000000  0.5406480000000  0.4894280000000 1.0
C      1  0.5309520000000  0.4596640000000  0.4894290000000 1.0
C      1  0.5309390000000  0.5386230000000  0.5060350000000 1.0
C      1  0.4595870000000  0.4875770000000  0.5305380000000 1.0
C      1  0.5412420000000  0.5127350000000  0.5305390000000 1.0
C      1  0.5414730000000  0.4891410000000  0.4706730000000 1.0
C      1  0.5146570000000  0.5311260000000  0.5406120000000 1.0
C      1  0.4861720000000  0.4691860000000  0.5406120000000 1.0
C      1  0.4884830000000  0.5309600000000  0.4606310000000 1.0
C      1  0.5108240000000  0.5006410000000  0.4222560000000 1.0
C      1  0.4200860000000  0.5107240000000  0.5000220000000 1.0
C      1  0.4999580000000  0.4200620000000  0.5106780000000 1.0
C      1  0.5107650000000  0.4996990000000  0.5781980000000 1.0
C      1  0.4900070000000  0.4996690000000  0.4222560000000 1.0
C      1  0.4900640000000  0.5006140000000  0.5781980000000 1.0
C      1  0.4199910000000  0.4900820000000  0.4997020000000 1.0
C      1  0.5807440000000  0.4895880000000  0.5000230000000 1.0
C      1  0.5808380000000  0.5102290000000  0.4997030000000 1.0
C      1  0.5002380000000  0.5804160000000  0.4901770000000 1.0
C      1  0.5008720000000  0.5802490000000  0.5106770000000 1.0
C      1  0.5005920000000  0.4198960000000  0.4901780000000 1.0
C      1  0.5106820000000  0.4203530000000  0.5009330000000 1.0
C      1  0.4196710000000  0.5003800000000  0.5101000000000 1.0
C      1  0.5000490000000  0.5103730000000  0.4219720000000 1.0
C      1  0.5109670000000  0.5801950000000  0.4999490000000 1.0
C      1  0.4898630000000  0.4201170000000  0.4999510000000 1.0
C      1  0.4901480000000  0.5799590000000  0.5009310000000 1.0
C      1  0.4199800000000  0.5005400000000  0.4896530000000 1.0
C      1  0.5808510000000  0.4997710000000  0.4896540000000 1.0
C      1  0.5811590000000  0.4999320000000  0.5101010000000 1.0
C      1  0.5001330000000  0.4898880000000  0.5785290000000 1.0
C      1  0.5006960000000  0.5104250000000  0.5785290000000 1.0
C      1  0.5007820000000  0.4899370000000  0.4219720000000 1.0
C      1  0.5732420000000  0.4917860000000  0.4666330000000 1.0
C      1  0.4669670000000  0.5730070000000  0.4937700000000 1.0
C      1  0.4924340000000  0.4665700000000  0.5725810000000 1.0
C      1  0.5745310000000  0.5075030000000  0.5331840000000 1.0
C      1  0.4275880000000  0.5085250000000  0.4666320000000 1.0
C      1  0.4262980000000  0.4928090000000  0.5331830000000 1.0
C      1  0.4668150000000  0.4276870000000  0.5074820000000 1.0
C      1  0.5338630000000  0.4273050000000  0.4937710000000 1.0
C      1  0.5340150000000  0.5726250000000  0.5074820000000 1.0
C      1  0.4917590000000  0.5332520000000  0.4284180000000 1.0
C      1  0.5083950000000  0.5337420000000  0.5725800000000 1.0
C      1  0.5090720000000  0.4670580000000  0.4284190000000 1.0
C      1  0.5733220000000  0.4665260000000  0.4923240000000 1.0
C      1  0.4674880000000  0.4930040000000  0.5707130000000 1.0
C      1  0.4922300000000  0.5737290000000  0.4669390000000 1.0
C      1  0.5741940000000  0.5335330000000  0.5072550000000 1.0
C      1  0.4266350000000  0.4667780000000  0.5072540000000 1.0
C      1  0.4275070000000  0.5337860000000  0.4923230000000 1.0
C      1  0.4667250000000  0.5072240000000  0.4286160000000 1.0
C      1  0.5341050000000  0.4930860000000  0.4286170000000 1.0
C      1  0.5333410000000  0.5073080000000  0.5707140000000 1.0
C      1  0.4921120000000  0.4266030000000  0.5339000000000 1.0
C      1  0.5087180000000  0.5737090000000  0.5338990000000 1.0
C      1  0.5086000000000  0.4265820000000  0.4669400000000 1.0
C      1  0.5376790000000  0.5180150000000  0.4435180000000 1.0
C      1  0.4386440000000  0.5382070000000  0.5181230000000 1.0
C      1  0.5164620000000  0.4389130000000  0.5386330000000 1.0
C      1  0.5377580000000  0.4825590000000  0.5567790000000 1.0
C      1  0.4631520000000  0.4822950000000  0.4435170000000 1.0
C      1  0.4630710000000  0.5177540000000  0.5567780000000 1.0
C      1  0.4389910000000  0.4622110000000  0.4822920000000 1.0
C      1  0.5621850000000  0.4621050000000  0.5181250000000 1.0
C      1  0.5618390000000  0.5381000000000  0.4822930000000 1.0
C      1  0.5165560000000  0.5617580000000  0.4619690000000 1.0
C      1  0.4843680000000  0.5613990000000  0.5386320000000 1.0
C      1  0.4842750000000  0.4385530000000  0.4619690000000 1.0
C      1  0.5384200000000  0.4411350000000  0.5182040000000 1.0
C      1  0.4401030000000  0.5176500000000  0.5363050000000 1.0
C      1  0.5163530000000  0.5385350000000  0.4405150000000 1.0
C      1  0.5385930000000  0.5597590000000  0.4823420000000 1.0
C      1  0.4622370000000  0.4405520000000  0.4823430000000 1.0
C      1  0.4624090000000  0.5591770000000  0.5182020000000 1.0
C      1  0.4403350000000  0.4829810000000  0.4638990000000 1.0
C      1  0.5604950000000  0.5173300000000  0.4638990000000 1.0
C      1  0.5607260000000  0.4826630000000  0.5363060000000 1.0
C      1  0.5164210000000  0.4617640000000  0.5597340000000 1.0
C      1  0.4844080000000  0.5385480000000  0.5597330000000 1.0
C      1  0.4844770000000  0.4617750000000  0.4405150000000 1.0
C      1  0.5077600000000  0.4552320000000  0.4834520000000 1.0
C      1  0.4826650000000  0.5073900000000  0.4570920000000 1.0
C      1  0.4546020000000  0.4815510000000  0.5073300000000 1.0
C      1  0.5090800000000  0.5452050000000  0.5177830000000 1.0
C      1  0.4930700000000  0.5450790000000  0.4834510000000 1.0
C      1  0.4917500000000  0.4551070000000  0.5177840000000 1.0
C      1  0.4824400000000  0.4937480000000  0.5425940000000 1.0
C      1  0.5181660000000  0.4929210000000  0.4570930000000 1.0
C      1  0.5183890000000  0.5065640000000  0.5425940000000 1.0
C      1  0.4565910000000  0.5173530000000  0.4940800000000 1.0
C      1  0.5462280000000  0.5187610000000  0.5073300000000 1.0
C      1  0.5442380000000  0.4829590000000  0.4940810000000 1.0
C      1  0.5078770000000  0.4827310000000  0.4572720000000 1.0
C      1  0.4821150000000  0.4555020000000  0.5067580000000 1.0
C      1  0.4549180000000  0.5072450000000  0.4837250000000 1.0
C      1  0.5092790000000  0.5178970000000  0.5437460000000 1.0
C      1  0.4915500000000  0.4824150000000  0.5437460000000 1.0
C      1  0.4929540000000  0.5175790000000  0.4572720000000 1.0
C      1  0.4830760000000  0.5445300000000  0.4938830000000 1.0
C      1  0.5177530000000  0.4557810000000  0.4938840000000 1.0
C      1  0.5187150000000  0.5448100000000  0.5067580000000 1.0
C      1  0.4530380000000  0.4913280000000  0.5176790000000 1.0
C      1  0.5477920000000  0.5089840000000  0.5176800000000 1.0
C      1  0.5459120000000  0.4930670000000  0.4837260000000 1.0
C      1  0.5173550000000  0.5372480000000  0.4547150000000 1.0
C      1  0.4539110000000  0.5208340000000  0.5325840000000 1.0
C      1  0.5382960000000  0.4552150000000  0.5220550000000 1.0
C      1  0.5168200000000  0.4637010000000  0.5454530000000 1.0
C      1  0.4834760000000  0.4630630000000  0.4547150000000 1.0
C      1  0.4840080000000  0.5366120000000  0.5454520000000 1.0
C      1  0.4541230000000  0.4796730000000  0.4678090000000 1.0
C      1  0.5469180000000  0.4794780000000  0.5325850000000 1.0
C      1  0.5467070000000  0.5206380000000  0.4678100000000 1.0
C      1  0.5380690000000  0.5457830000000  0.4784210000000 1.0
C      1  0.4625330000000  0.5450970000000  0.5220540000000 1.0
C      1  0.4627620000000  0.4545280000000  0.4784210000000 1.0
C      1  0.5176000000000  0.4529100000000  0.5360030000000 1.0
C      1  0.4528760000000  0.5355170000000  0.5201720000000 1.0
C      1  0.5372160000000  0.5222700000000  0.4578390000000 1.0
C      1  0.5174070000000  0.5477360000000  0.4643740000000 1.0
C      1  0.4834230000000  0.4525740000000  0.4643740000000 1.0
C      1  0.4832290000000  0.5474020000000  0.5360020000000 1.0
C      1  0.4532120000000  0.4641340000000  0.4796450000000 1.0
C      1  0.5476190000000  0.5361780000000  0.4796450000000 1.0
C      1  0.5479530000000  0.4647950000000  0.5201730000000 1.0
C      1  0.5372870000000  0.4784620000000  0.5425150000000 1.0
C      1  0.4635420000000  0.5218500000000  0.5425150000000 1.0
C      1  0.4636150000000  0.4780410000000  0.4578380000000 1.0
C      1  0.4414350000000  0.5076920000000  0.5472710000000 1.0
C      1  0.5496800000000  0.4411490000000  0.5083520000000 1.0
C      1  0.5064860000000  0.5500320000000  0.4405360000000 1.0
C      1  0.4416510000000  0.4925300000000  0.4526470000000 1.0
C      1  0.5593940000000  0.4926200000000  0.5472720000000 1.0
C      1  0.5591800000000  0.5077810000000  0.4526470000000 1.0
C      1  0.5497080000000  0.5591750000000  0.4922990000000 1.0
C      1  0.4511500000000  0.5591620000000  0.5083500000000 1.0
C      1  0.4511220000000  0.4411360000000  0.4922990000000 1.0
C      1  0.5069600000000  0.4499450000000  0.5602670000000 1.0
C      1  0.4943440000000  0.4502780000000  0.4405360000000 1.0
C      1  0.4938690000000  0.5503670000000  0.5602660000000 1.0
C      1  0.4403460000000  0.5493720000000  0.5081340000000 1.0
C      1  0.5485740000000  0.5080950000000  0.4431390000000 1.0
C      1  0.5068650000000  0.4392600000000  0.5502040000000 1.0
C      1  0.4404070000000  0.4511380000000  0.4922310000000 1.0
C      1  0.5604230000000  0.5491740000000  0.4922320000000 1.0
C      1  0.5604830000000  0.4509400000000  0.5081360000000 1.0
C      1  0.5486590000000  0.4925900000000  0.5567890000000 1.0
C      1  0.4521700000000  0.5077230000000  0.5567880000000 1.0
C      1  0.4522570000000  0.4922150000000  0.4431390000000 1.0
C      1  0.5066720000000  0.5608860000000  0.4505380000000 1.0
C      1  0.4941580000000  0.4394240000000  0.4505380000000 1.0
C      1  0.4939640000000  0.5610530000000  0.5502030000000 1.0
C      1  0.5470290000000  0.4741900000000  0.4346030000000 1.0
C      1  0.4399340000000  0.5423820000000  0.4757570000000 1.0
C      1  0.4746500000000  0.4374530000000  0.5431630000000 1.0
C      1  0.5433930000000  0.5257310000000  0.5612890000000 1.0
C      1  0.4538010000000  0.5261200000000  0.4346020000000 1.0
C      1  0.4574360000000  0.4745810000000  0.5612880000000 1.0
C      1  0.4383450000000  0.4584010000000  0.5246660000000 1.0
C      1  0.5608960000000  0.4579290000000  0.4757590000000 1.0
C      1  0.5624850000000  0.5419110000000  0.5246670000000 1.0
C      1  0.4749660000000  0.5611080000000  0.4592340000000 1.0
C      1  0.5261800000000  0.5628590000000  0.5431630000000 1.0
C      1  0.5258650000000  0.4392030000000  0.4592360000000 1.0
C      1  0.5422050000000  0.4393490000000  0.4765650000000 1.0
C      1  0.4383520000000  0.4754230000000  0.5414320000000 1.0
C      1  0.4745940000000  0.5415270000000  0.4405090000000 1.0
C      1  0.5435950000000  0.5620700000000  0.5256240000000 1.0
C      1  0.4572340000000  0.4382420000000  0.5256240000000 1.0
C      1  0.4586250000000  0.5609630000000  0.4765630000000 1.0
C      1  0.4408440000000  0.5255600000000  0.4564500000000 1.0
C      1  0.5599860000000  0.4747510000000  0.4564510000000 1.0
C      1  0.5624770000000  0.5248890000000  0.5414320000000 1.0
C      1  0.4748190000000  0.4570090000000  0.5623670000000 1.0
C      1  0.5260100000000  0.5433040000000  0.5623670000000 1.0
C      1  0.5262360000000  0.4587840000000  0.4405110000000 1.0
C      1  0.5323630000000  0.4293590000000  0.4793950000000 1.0
C      1  0.4773740000000  0.5314540000000  0.4305860000000 1.0
C      1  0.4284250000000  0.4783990000000  0.5316170000000 1.0
C      1  0.5327880000000  0.5707110000000  0.5219240000000 1.0
C      1  0.4684670000000  0.5709520000000  0.4793940000000 1.0
C      1  0.4680410000000  0.4296010000000  0.5219250000000 1.0
C      1  0.4781660000000  0.4681400000000  0.5708650000000 1.0
C      1  0.5234560000000  0.4688560000000  0.4305870000000 1.0
C      1  0.5226630000000  0.5321730000000  0.5708640000000 1.0
C      1  0.4301360000000  0.5227910000000  0.4674580000000 1.0
C      1  0.5724050000000  0.5219130000000  0.5316170000000 1.0
C      1  0.5706940000000  0.4775200000000  0.4674590000000 1.0
C      1  0.5338920000000  0.4783960000000  0.4291690000000 1.0
C      1  0.4778430000000  0.4285790000000  0.5322630000000 1.0
C      1  0.4301380000000  0.5322330000000  0.4780080000000 1.0
C      1  0.5323410000000  0.5217900000000  0.5694750000000 1.0
C      1  0.4684880000000  0.4785230000000  0.5694750000000 1.0
C      1  0.4669390000000  0.5219140000000  0.4291680000000 1.0
C      1  0.4781130000000  0.5711410000000  0.4690710000000 1.0
C      1  0.5227170000000  0.4291700000000  0.4690730000000 1.0
C      1  0.5229860000000  0.5717330000000  0.5322630000000 1.0
C      1  0.4285660000000  0.4683890000000  0.5215750000000 1.0
C      1  0.5722630000000  0.5319230000000  0.5215760000000 1.0
C      1  0.5706930000000  0.4680780000000  0.4780090000000 1.0
C      1  0.5631150000000  0.5155350000000  0.5519060000000 1.0
C      1  0.5533650000000  0.5621710000000  0.5155050000000 1.0
C      1  0.5169250000000  0.5539020000000  0.5634890000000 1.0
C      1  0.5630090000000  0.4852900000000  0.4472660000000 1.0
C      1  0.4377140000000  0.4847770000000  0.5519050000000 1.0
C      1  0.4378210000000  0.5150200000000  0.4472640000000 1.0
C      1  0.5530760000000  0.4377450000000  0.4852840000000 1.0
C      1  0.4474640000000  0.4381410000000  0.5155050000000 1.0
C      1  0.4477540000000  0.5625660000000  0.4852820000000 1.0
C      1  0.5176320000000  0.4476430000000  0.4385150000000 1.0
C      1  0.4839040000000  0.4464100000000  0.5634890000000 1.0
C      1  0.4831980000000  0.5526680000000  0.4385140000000 1.0
C      1  0.5632640000000  0.5525230000000  0.5154620000000 1.0
C      1  0.5530520000000  0.5154820000000  0.5612810000000 1.0
C      1  0.5170580000000  0.5638280000000  0.5537700000000 1.0
C      1  0.5628060000000  0.4472250000000  0.4848400000000 1.0
C      1  0.4380250000000  0.5530860000000  0.4848390000000 1.0
C      1  0.4375660000000  0.4477890000000  0.5154620000000 1.0
C      1  0.5548210000000  0.4859370000000  0.4361620000000 1.0
C      1  0.4460090000000  0.5143730000000  0.4361610000000 1.0
C      1  0.4477770000000  0.4848300000000  0.5612810000000 1.0
C      1  0.5175080000000  0.4378000000000  0.4480240000000 1.0
C      1  0.4833230000000  0.5625100000000  0.4480230000000 1.0
C      1  0.4837720000000  0.4364850000000  0.5537710000000 1.0
C      1  0.4954040000000  0.4319590000000  0.5471400000000 1.0
C      1  0.5467450000000  0.4972810000000  0.4342310000000 1.0
C      1  0.4331610000000  0.5465460000000  0.4963800000000 1.0
C      1  0.4951390000000  0.5680000000000  0.4537890000000 1.0
C      1  0.5054250000000  0.5683530000000  0.5471390000000 1.0
C      1  0.5056910000000  0.4323110000000  0.4537900000000 1.0
C      1  0.5460900000000  0.5037350000000  0.5648430000000 1.0
C      1  0.4540850000000  0.5030290000000  0.4342310000000 1.0
C      1  0.4547390000000  0.4965770000000  0.5648430000000 1.0
C      1  0.4329410000000  0.4541410000000  0.5037700000000 1.0
C      1  0.5676690000000  0.4537650000000  0.4963820000000 1.0
C      1  0.5678890000000  0.5461710000000  0.5037700000000 1.0
C      1  0.4949320000000  0.5465630000000  0.4334940000000 1.0
C      1  0.5467910000000  0.4332170000000  0.4971470000000 1.0
C      1  0.4332130000000  0.4964550000000  0.5454340000000 1.0
C      1  0.4956370000000  0.4531720000000  0.5676420000000 1.0
C      1  0.5051920000000  0.5471410000000  0.5676410000000 1.0
C      1  0.5058980000000  0.4537480000000  0.4334950000000 1.0
C      1  0.5467570000000  0.5666270000000  0.5038150000000 1.0
C      1  0.4540730000000  0.4336850000000  0.5038160000000 1.0
C      1  0.4540390000000  0.5670950000000  0.4971450000000 1.0
C      1  0.4336680000000  0.5039020000000  0.4544480000000 1.0
C      1  0.5671630000000  0.4964090000000  0.4544490000000 1.0
C      1  0.5676160000000  0.5038580000000  0.5454350000000 1.0
C      1  0.5269010000000  0.5377150000000  0.5481300000000 1.0
C      1  0.5477960000000  0.5262120000000  0.5363120000000 1.0
C      1  0.5412910000000  0.5494010000000  0.5323590000000 1.0
C      1  0.5260320000000  0.4642370000000  0.4545160000000 1.0
C      1  0.4739280000000  0.4625970000000  0.5481300000000 1.0
C      1  0.4747980000000  0.5360740000000  0.4545140000000 1.0
C      1  0.5470590000000  0.4754010000000  0.4667840000000 1.0
C      1  0.4530330000000  0.4741000000000  0.5363110000000 1.0
C      1  0.4537710000000  0.5249100000000  0.4667820000000 1.0
C      1  0.5364940000000  0.4531460000000  0.4756130000000 1.0
C      1  0.4595380000000  0.4509110000000  0.5323590000000 1.0
C      1  0.4643360000000  0.5471650000000  0.4756120000000 1.0
C      1  0.5269120000000  0.5487480000000  0.5372950000000 1.0
C      1  0.5478240000000  0.5368970000000  0.5256470000000 1.0
C      1  0.5412670000000  0.5328100000000  0.5487820000000 1.0
C      1  0.5263850000000  0.4529350000000  0.4650670000000 1.0
C      1  0.4744450000000  0.5473760000000  0.4650660000000 1.0
C      1  0.4739170000000  0.4515640000000  0.5372950000000 1.0
C      1  0.5475540000000  0.4641000000000  0.4759670000000 1.0
C      1  0.4532760000000  0.5362110000000  0.4759660000000 1.0
C      1  0.4530060000000  0.4634150000000  0.5256470000000 1.0
C      1  0.5362190000000  0.4743640000000  0.4558960000000 1.0
C      1  0.4646110000000  0.5259470000000  0.4558950000000 1.0
C      1  0.4595620000000  0.4675020000000  0.5487810000000 1.0
C      1  0.5016810000000  0.5231400000000  0.4273760000000 1.0
C      1  0.4241940000000  0.5023840000000  0.5231440000000 1.0
C      1  0.5233760000000  0.4261260000000  0.5032340000000 1.0
C      1  0.5020020000000  0.4770060000000  0.5733500000000 1.0
C      1  0.4991500000000  0.4771710000000  0.4273760000000 1.0
C      1  0.4988270000000  0.5233070000000  0.5733500000000 1.0
C      1  0.4248850000000  0.4988430000000  0.4766730000000 1.0
C      1  0.5766350000000  0.4979280000000  0.5231450000000 1.0
C      1  0.5759450000000  0.5014680000000  0.4766740000000 1.0
C      1  0.5237720000000  0.5745850000000  0.4978390000000 1.0
C      1  0.4774540000000  0.5741860000000  0.5032320000000 1.0
C      1  0.4770580000000  0.4257270000000  0.4978400000000 1.0
C      1  0.5017740000000  0.4253310000000  0.5235640000000 1.0
C      1  0.4251420000000  0.5236780000000  0.5019760000000 1.0
C      1  0.5235160000000  0.5025490000000  0.4279950000000 1.0
C      1  0.5020430000000  0.5752890000000  0.4771970000000 1.0
C      1  0.4987870000000  0.4250230000000  0.4771980000000 1.0
C      1  0.4990560000000  0.5749810000000  0.5235620000000 1.0
C      1  0.4249710000000  0.4771440000000  0.4978470000000 1.0
C      1  0.5758590000000  0.5231680000000  0.4978480000000 1.0
C      1  0.5756880000000  0.4766340000000  0.5019780000000 1.0
C      1  0.5232090000000  0.4976110000000  0.5720390000000 1.0
C      1  0.4776190000000  0.5027020000000  0.5720390000000 1.0
C      1  0.4773140000000  0.4977610000000  0.4279940000000 1.0
C      1  0.4738110000000  0.5294340000000  0.5384710000000 1.0
C      1  0.5272970000000  0.5302930000000  0.4619880000000 1.0
C      1  0.5270180000000  0.4708780000000  0.5384720000000 1.0
C      1  0.4572100000000  0.5223490000000  0.5187910000000 1.0
C      1  0.5437990000000  0.5229710000000  0.4813260000000 1.0
C      1  0.5436190000000  0.4779630000000  0.5187920000000 1.0
C      1  0.4730800000000  0.5405910000000  0.5291120000000 1.0
C      1  0.5277490000000  0.4597210000000  0.5291130000000 1.0
C      1  0.4734220000000  0.4592940000000  0.4718770000000 1.0
C      1  0.5274080000000  0.5410170000000  0.4718770000000 1.0
C      1  0.4735340000000  0.4700180000000  0.4619870000000 1.0
C      1  0.4570320000000  0.4773400000000  0.4813250000000 1.0
C      1  0.5485240000000  0.4680880000000  0.4472500000000 1.0
C      1  0.4523070000000  0.5322230000000  0.4472480000000 1.0
C      1  0.4554940000000  0.4540410000000  0.5458020000000 1.0
C      1  0.5453350000000  0.5462710000000  0.5458020000000 1.0
END
