TITL C-1892073-1155-50 -1.80232109887601e-08 1000000 -2361.80109002066 0 0 340 (C2) n - 1
REM
REM in /nfs/bkarasulu/CARBON/AIRSS/Generating-Clusters/GAP-ML-2020/Higher-Symm/Selected-Sizes/TryA-Only_Ih-Symm/Larger-Clusters
REM
REM
REM
REM
REM
REM ./C.cell (2cf5181f0f1d4d5b12b972d32ad12063)
REM
REM compiler GCC version 9.2.1 20190827 (Red Hat 9.2.1-1)
REM options -cpp -mtune=generic -march=x86-64 -g -O0 -fpre-include=/usr/include/finclude/math-vector-fortran.h
REM seed 2017611945 2078176758 -1450118036 1458943353 1128739477 -656035760 1994931341 -259971855 -6133298 2093897910 -1207132717 1237415701 188067601 -1541893515 1631298514 1323032691 605734444 286777770 -1515349484 -304784971 -491777488 1666447713 1382502605 -1704817985 218486121 -150768036 129807078 -569649729 -261715918 988283587 18646377 -940452070 -154208863
REM
CELL 1.54180  100.00000  100.00000  100.00000   90.00000   90.00000   90.00000
LATT -1
SFAC C  
C      1  0.5284940000000  0.4891450000000  0.5368850000000 1.0
C      1  0.5339700000000  0.5270070000000  0.4848390000000 1.0
C      1  0.4913530000000  0.5396150000000  0.5293430000000 1.0
C      1  0.4717040000000  0.4886120000000  0.4627390000000 1.0
C      1  0.5284930000000  0.5109120000000  0.4633600000000 1.0
C      1  0.4717040000000  0.5114440000000  0.5375070000000 1.0
C      1  0.4615880000000  0.5283790000000  0.5101680000000 1.0
C      1  0.5339720000000  0.4730510000000  0.5154060000000 1.0
C      1  0.4615880000000  0.4716770000000  0.4900790000000 1.0
C      1  0.5093450000000  0.5394370000000  0.4724640000000 1.0
C      1  0.4913530000000  0.4604420000000  0.4709030000000 1.0
C      1  0.5093470000000  0.4606200000000  0.5277820000000 1.0
C      1  0.5398480000000  0.4928180000000  0.5294200000000 1.0
C      1  0.4883610000000  0.5283450000000  0.5376310000000 1.0
C      1  0.5271320000000  0.5388740000000  0.4895510000000 1.0
C      1  0.4604980000000  0.4915890000000  0.4711330000000 1.0
C      1  0.4604990000000  0.5084670000000  0.5291140000000 1.0
C      1  0.5398470000000  0.5072400000000  0.4708250000000 1.0
C      1  0.5134350000000  0.5278580000000  0.4652780000000 1.0
C      1  0.5134370000000  0.4721990000000  0.5349670000000 1.0
C      1  0.4883610000000  0.4717120000000  0.4626150000000 1.0
C      1  0.4713010000000  0.5383090000000  0.5101880000000 1.0
C      1  0.4713020000000  0.4617470000000  0.4900590000000 1.0
C      1  0.5271330000000  0.4611840000000  0.5106940000000 1.0
C      1  0.5614720000000  0.4920140000000  0.4568910000000 1.0
C      1  0.4565520000000  0.5614750000000  0.4927970000000 1.0
C      1  0.4921410000000  0.4566720000000  0.5625620000000 1.0
C      1  0.4388540000000  0.4922220000000  0.5435160000000 1.0
C      1  0.5614720000000  0.5080440000000  0.5433530000000 1.0
C      1  0.4388520000000  0.5078330000000  0.4567310000000 1.0
C      1  0.5435830000000  0.5616200000000  0.5071920000000 1.0
C      1  0.4565540000000  0.4385810000000  0.5074500000000 1.0
C      1  0.5435840000000  0.4384380000000  0.4930530000000 1.0
C      1  0.5078820000000  0.4570180000000  0.4388220000000 1.0
C      1  0.4921390000000  0.5433840000000  0.4376840000000 1.0
C      1  0.5078820000000  0.5430390000000  0.5614240000000 1.0
C      1  0.4568480000000  0.4918430000000  0.5621020000000 1.0
C      1  0.4923140000000  0.5617260000000  0.4564180000000 1.0
C      1  0.5622310000000  0.4565570000000  0.4929410000000 1.0
C      1  0.5429800000000  0.4921190000000  0.4392160000000 1.0
C      1  0.5429810000000  0.5079390000000  0.5610290000000 1.0
C      1  0.4568470000000  0.5082120000000  0.4381450000000 1.0
C      1  0.5075300000000  0.5613250000000  0.5435160000000 1.0
C      1  0.5075300000000  0.4387320000000  0.4567290000000 1.0
C      1  0.4923170000000  0.4383310000000  0.5438280000000 1.0
C      1  0.4386480000000  0.4568490000000  0.5075090000000 1.0
C      1  0.4386460000000  0.5432060000000  0.4927380000000 1.0
C      1  0.5622300000000  0.5435010000000  0.5073030000000 1.0
C      1  0.5495990000000  0.5039790000000  0.5122540000000 1.0
C      1  0.5127600000000  0.5506960000000  0.5036110000000 1.0
C      1  0.5034860000000  0.5131490000000  0.5494310000000 1.0
C      1  0.4494480000000  0.5038450000000  0.4870140000000 1.0
C      1  0.5495990000000  0.4960790000000  0.4879900000000 1.0
C      1  0.4494480000000  0.4962100000000  0.5132330000000 1.0
C      1  0.4863470000000  0.5505450000000  0.4968340000000 1.0
C      1  0.5127610000000  0.4493610000000  0.4966350000000 1.0
C      1  0.4863490000000  0.4495110000000  0.5034120000000 1.0
C      1  0.4968750000000  0.5134890000000  0.4519160000000 1.0
C      1  0.5034860000000  0.4869080000000  0.4508150000000 1.0
C      1  0.4968770000000  0.4865680000000  0.5483300000000 1.0
C      1  0.5131550000000  0.5035650000000  0.5492080000000 1.0
C      1  0.5033350000000  0.5507750000000  0.5133140000000 1.0
C      1  0.5484830000000  0.5139330000000  0.5028170000000 1.0
C      1  0.4872910000000  0.5036820000000  0.4513790000000 1.0
C      1  0.4872920000000  0.4963750000000  0.5488670000000 1.0
C      1  0.5131540000000  0.4964930000000  0.4510380000000 1.0
C      1  0.4959500000000  0.5507970000000  0.4872910000000 1.0
C      1  0.4959520000000  0.4492590000000  0.5129550000000 1.0
C      1  0.5033360000000  0.4492820000000  0.4869320000000 1.0
C      1  0.4496090000000  0.5132830000000  0.4966850000000 1.0
C      1  0.4496090000000  0.4867720000000  0.5035620000000 1.0
C      1  0.5484830000000  0.4861250000000  0.4974270000000 1.0
C      1  0.4426110000000  0.4798590000000  0.5403540000000 1.0
C      1  0.5403360000000  0.4419620000000  0.4806300000000 1.0
C      1  0.4799510000000  0.5404380000000  0.4422350000000 1.0
C      1  0.5576080000000  0.4797820000000  0.4605460000000 1.0
C      1  0.4426100000000  0.5201960000000  0.4598930000000 1.0
C      1  0.5576090000000  0.5202770000000  0.5396990000000 1.0
C      1  0.4596890000000  0.4421800000000  0.5199370000000 1.0
C      1  0.5403340000000  0.5580960000000  0.5196150000000 1.0
C      1  0.4596870000000  0.5578760000000  0.4803100000000 1.0
C      1  0.5202640000000  0.5401820000000  0.5573830000000 1.0
C      1  0.4799530000000  0.4596190000000  0.5580120000000 1.0
C      1  0.5202640000000  0.4598750000000  0.4428620000000 1.0
C      1  0.5400760000000  0.4797190000000  0.4431870000000 1.0
C      1  0.4799680000000  0.4420780000000  0.5405000000000 1.0
C      1  0.4423800000000  0.5402830000000  0.4802360000000 1.0
C      1  0.4599660000000  0.4795690000000  0.5579670000000 1.0
C      1  0.4599640000000  0.5204860000000  0.4422790000000 1.0
C      1  0.5400760000000  0.5203390000000  0.5570580000000 1.0
C      1  0.5199160000000  0.4422440000000  0.4601350000000 1.0
C      1  0.5199150000000  0.5578130000000  0.5401110000000 1.0
C      1  0.4799660000000  0.5579780000000  0.4597460000000 1.0
C      1  0.5578410000000  0.5405300000000  0.5195190000000 1.0
C      1  0.5578420000000  0.4595280000000  0.4807250000000 1.0
C      1  0.4423820000000  0.4597730000000  0.5200110000000 1.0
C      1  0.5346690000000  0.5150560000000  0.5236410000000 1.0
C      1  0.5246560000000  0.5356410000000  0.5135180000000 1.0
C      1  0.5139150000000  0.5249390000000  0.5347280000000 1.0
C      1  0.4652820000000  0.5146060000000  0.4753860000000 1.0
C      1  0.5346690000000  0.4850010000000  0.4766040000000 1.0
C      1  0.4652830000000  0.4854490000000  0.5248600000000 1.0
C      1  0.4752430000000  0.5352990000000  0.4858960000000 1.0
C      1  0.5246560000000  0.4644160000000  0.4867270000000 1.0
C      1  0.4752440000000  0.4647570000000  0.5143510000000 1.0
C      1  0.4865300000000  0.5248470000000  0.4649430000000 1.0
C      1  0.5139150000000  0.4751180000000  0.4655170000000 1.0
C      1  0.4865310000000  0.4752090000000  0.5353030000000 1.0
C      1  0.5245110000000  0.5144890000000  0.5343200000000 1.0
C      1  0.5143580000000  0.5352730000000  0.5243310000000 1.0
C      1  0.5351230000000  0.5253320000000  0.5126200000000 1.0
C      1  0.4756980000000  0.5142500000000  0.4649810000000 1.0
C      1  0.4756990000000  0.4858060000000  0.5352650000000 1.0
C      1  0.5245110000000  0.4855680000000  0.4659250000000 1.0
C      1  0.4858040000000  0.5353140000000  0.4754070000000 1.0
C      1  0.4858060000000  0.4647430000000  0.5248390000000 1.0
C      1  0.5143580000000  0.4647840000000  0.4759150000000 1.0
C      1  0.4650400000000  0.5249240000000  0.4859110000000 1.0
C      1  0.4650410000000  0.4751320000000  0.5143360000000 1.0
C      1  0.5351230000000  0.4747260000000  0.4876250000000 1.0
C      1  0.4944460000000  0.5578180000000  0.5481720000000 1.0
C      1  0.5474350000000  0.4947610000000  0.5581330000000 1.0
C      1  0.5579950000000  0.5471410000000  0.4939830000000 1.0
C      1  0.5054400000000  0.5578170000000  0.4521150000000 1.0
C      1  0.4944470000000  0.4422380000000  0.4520740000000 1.0
C      1  0.5054430000000  0.4422400000000  0.5481300000000 1.0
C      1  0.4525710000000  0.4949890000000  0.4414620000000 1.0
C      1  0.5474340000000  0.5052980000000  0.4421120000000 1.0
C      1  0.4525730000000  0.5050660000000  0.5587850000000 1.0
C      1  0.4420040000000  0.5474010000000  0.5060490000000 1.0
C      1  0.5579970000000  0.4529170000000  0.5062620000000 1.0
C      1  0.4420050000000  0.4526540000000  0.4941980000000 1.0
C      1  0.5476330000000  0.5577000000000  0.4940460000000 1.0
C      1  0.5580780000000  0.4949080000000  0.5479490000000 1.0
C      1  0.4946260000000  0.5473400000000  0.5585440000000 1.0
C      1  0.4523090000000  0.5579190000000  0.5060840000000 1.0
C      1  0.4523110000000  0.4421360000000  0.4941630000000 1.0
C      1  0.5476350000000  0.4423580000000  0.5061990000000 1.0
C      1  0.4422720000000  0.4948040000000  0.4520580000000 1.0
C      1  0.4422730000000  0.5052520000000  0.5481890000000 1.0
C      1  0.5580770000000  0.5051510000000  0.4522960000000 1.0
C      1  0.5054750000000  0.5472310000000  0.4417470000000 1.0
C      1  0.5054770000000  0.4528260000000  0.5584990000000 1.0
C      1  0.4946260000000  0.4527170000000  0.4417020000000 1.0
C      1  0.4630570000000  0.5013330000000  0.4812170000000 1.0
C      1  0.4808970000000  0.4633000000000  0.5007710000000 1.0
C      1  0.5003890000000  0.4811450000000  0.4641730000000 1.0
C      1  0.5364250000000  0.5015590000000  0.5184720000000 1.0
C      1  0.4630580000000  0.4987230000000  0.5190300000000 1.0
C      1  0.5364240000000  0.4984990000000  0.4817730000000 1.0
C      1  0.5180010000000  0.4630810000000  0.4997200000000 1.0
C      1  0.4808960000000  0.5367560000000  0.4994750000000 1.0
C      1  0.5180000000000  0.5369760000000  0.5005250000000 1.0
C      1  0.5002390000000  0.4815240000000  0.5348800000000 1.0
C      1  0.5003890000000  0.5189120000000  0.5360730000000 1.0
C      1  0.5002380000000  0.5185330000000  0.4653650000000 1.0
C      1  0.4813590000000  0.5005510000000  0.4643820000000 1.0
C      1  0.5008670000000  0.4629470000000  0.4812580000000 1.0
C      1  0.4632810000000  0.4811550000000  0.5009040000000 1.0
C      1  0.5185860000000  0.5009140000000  0.5356530000000 1.0
C      1  0.5185850000000  0.4991430000000  0.4645920000000 1.0
C      1  0.4813600000000  0.4995060000000  0.5358640000000 1.0
C      1  0.4988160000000  0.4629490000000  0.5184060000000 1.0
C      1  0.4988150000000  0.5371080000000  0.4818400000000 1.0
C      1  0.5008660000000  0.5371100000000  0.5189880000000 1.0
C      1  0.5346110000000  0.4815710000000  0.5012340000000 1.0
C      1  0.5346100000000  0.5184870000000  0.4990110000000 1.0
C      1  0.4632800000000  0.5189010000000  0.4993430000000 1.0
C      1  0.5587470000000  0.5064950000000  0.4843230000000 1.0
C      1  0.4830810000000  0.5592550000000  0.5073280000000 1.0
C      1  0.5067490000000  0.4832060000000  0.5576030000000 1.0
C      1  0.4406120000000  0.5066090000000  0.5166640000000 1.0
C      1  0.5587470000000  0.4935630000000  0.5159220000000 1.0
C      1  0.4406120000000  0.4934460000000  0.4835830000000 1.0
C      1  0.5161450000000  0.5597280000000  0.4933470000000 1.0
C      1  0.4830830000000  0.4408010000000  0.4929180000000 1.0
C      1  0.5161470000000  0.4403290000000  0.5068980000000 1.0
C      1  0.4936760000000  0.4841890000000  0.4410360000000 1.0
C      1  0.5067480000000  0.5168510000000  0.4426430000000 1.0
C      1  0.4936760000000  0.5158680000000  0.5592100000000 1.0
C      1  0.4839790000000  0.5058450000000  0.5588720000000 1.0
C      1  0.5062930000000  0.5598260000000  0.4838190000000 1.0
C      1  0.5576940000000  0.4828820000000  0.5073030000000 1.0
C      1  0.5162810000000  0.5068200000000  0.4420370000000 1.0
C      1  0.5162830000000  0.4932380000000  0.5582080000000 1.0
C      1  0.4839780000000  0.4942110000000  0.4413740000000 1.0
C      1  0.4928910000000  0.5595050000000  0.5168550000000 1.0
C      1  0.4928930000000  0.4405520000000  0.4833910000000 1.0
C      1  0.5062950000000  0.4402310000000  0.5164260000000 1.0
C      1  0.4407880000000  0.4836390000000  0.4931060000000 1.0
C      1  0.4407880000000  0.5164160000000  0.5071410000000 1.0
C      1  0.5576930000000  0.5171770000000  0.4929410000000 1.0
C      1  0.5319690000000  0.5528330000000  0.4570040000000 1.0
C      1  0.4571820000000  0.5318880000000  0.5541250000000 1.0
C      1  0.5527800000000  0.4574930000000  0.5328400000000 1.0
C      1  0.4677360000000  0.5528460000000  0.5438670000000 1.0
C      1  0.5319710000000  0.4472250000000  0.5432410000000 1.0
C      1  0.4677370000000  0.4472100000000  0.4563790000000 1.0
C      1  0.5429960000000  0.5320770000000  0.4465720000000 1.0
C      1  0.4571820000000  0.4681670000000  0.4461220000000 1.0
C      1  0.5429980000000  0.4679810000000  0.5536730000000 1.0
C      1  0.4470420000000  0.4575210000000  0.4672170000000 1.0
C      1  0.5527780000000  0.5425650000000  0.4674050000000 1.0
C      1  0.4470410000000  0.5425340000000  0.5330300000000 1.0
C      1  0.4570830000000  0.5527490000000  0.5330920000000 1.0
C      1  0.5531580000000  0.5319280000000  0.4568060000000 1.0
C      1  0.5322940000000  0.4573480000000  0.5534630000000 1.0
C      1  0.5426110000000  0.5527340000000  0.4675950000000 1.0
C      1  0.5426130000000  0.4473250000000  0.5326500000000 1.0
C      1  0.4570840000000  0.4473060000000  0.4671540000000 1.0
C      1  0.4470160000000  0.5318760000000  0.5437820000000 1.0
C      1  0.4470160000000  0.4681790000000  0.4564650000000 1.0
C      1  0.5531600000000  0.4681310000000  0.5434390000000 1.0
C      1  0.4678230000000  0.4574470000000  0.4461100000000 1.0
C      1  0.4678230000000  0.5426090000000  0.5541360000000 1.0
C      1  0.5322920000000  0.5427100000000  0.4467820000000 1.0
C      1  0.5336240000000  0.5447840000000  0.5223300000000 1.0
C      1  0.5228870000000  0.5337040000000  0.5440460000000 1.0
C      1  0.5443710000000  0.5232690000000  0.5327160000000 1.0
C      1  0.4664810000000  0.5447020000000  0.4771620000000 1.0
C      1  0.5336250000000  0.4552740000000  0.4779150000000 1.0
C      1  0.4664830000000  0.4553540000000  0.5230850000000 1.0
C      1  0.4774800000000  0.5337490000000  0.4554730000000 1.0
C      1  0.5228870000000  0.4663530000000  0.4561990000000 1.0
C      1  0.4774820000000  0.4663080000000  0.5447730000000 1.0
C      1  0.4558970000000  0.5231350000000  0.4664360000000 1.0
C      1  0.5443710000000  0.4767890000000  0.4675290000000 1.0
C      1  0.4558980000000  0.4769210000000  0.5338110000000 1.0
C      1  0.5229720000000  0.5446600000000  0.5331930000000 1.0
C      1  0.5445710000000  0.5339710000000  0.5220290000000 1.0
C      1  0.5335440000000  0.5230890000000  0.5437780000000 1.0
C      1  0.4772220000000  0.5446320000000  0.4664200000000 1.0
C      1  0.4772240000000  0.4554240000000  0.5338260000000 1.0
C      1  0.5229730000000  0.4553970000000  0.4670530000000 1.0
C      1  0.4556450000000  0.5337450000000  0.4771810000000 1.0
C      1  0.4556470000000  0.4663100000000  0.5230660000000 1.0
C      1  0.5445720000000  0.4660870000000  0.4782160000000 1.0
C      1  0.4668270000000  0.5230680000000  0.4555060000000 1.0
C      1  0.4668280000000  0.4769880000000  0.5447400000000 1.0
C      1  0.5335440000000  0.4769680000000  0.4564670000000 1.0
C      1  0.5270190000000  0.5155480000000  0.4478550000000 1.0
C      1  0.4475050000000  0.5267200000000  0.5163200000000 1.0
C      1  0.5152350000000  0.4465410000000  0.5269580000000 1.0
C      1  0.4732890000000  0.5152690000000  0.5542270000000 1.0
C      1  0.5270210000000  0.4845100000000  0.5523900000000 1.0
C      1  0.4732880000000  0.4847870000000  0.4460190000000 1.0
C      1  0.5510140000000  0.5265710000000  0.4829440000000 1.0
C      1  0.4475050000000  0.4733360000000  0.4839270000000 1.0
C      1  0.5510160000000  0.4734880000000  0.5173010000000 1.0
C      1  0.4843120000000  0.4471880000000  0.4727500000000 1.0
C      1  0.5152330000000  0.5535170000000  0.4732870000000 1.0
C      1  0.4843110000000  0.5528680000000  0.5274960000000 1.0
C      1  0.4471380000000  0.5152980000000  0.5273520000000 1.0
C      1  0.5162560000000  0.5269210000000  0.4486270000000 1.0
C      1  0.5264240000000  0.4467510000000  0.5160580000000 1.0
C      1  0.5528810000000  0.5147340000000  0.4729720000000 1.0
C      1  0.5528820000000  0.4853250000000  0.5272730000000 1.0
C      1  0.4471380000000  0.4847570000000  0.4728950000000 1.0
C      1  0.4843430000000  0.5265200000000  0.5545720000000 1.0
C      1  0.4843430000000  0.4735360000000  0.4456730000000 1.0
C      1  0.5162570000000  0.4731370000000  0.5516180000000 1.0
C      1  0.4728710000000  0.4476830000000  0.4838040000000 1.0
C      1  0.4728700000000  0.5523730000000  0.5164420000000 1.0
C      1  0.5264220000000  0.5533060000000  0.4841870000000 1.0
C      1  0.5396280000000  0.4420860000000  0.5189190000000 1.0
C      1  0.5183950000000  0.5392780000000  0.4420690000000 1.0
C      1  0.4421090000000  0.5181760000000  0.5403850000000 1.0
C      1  0.4600780000000  0.4420660000000  0.4809960000000 1.0
C      1  0.5396260000000  0.5579720000000  0.4813260000000 1.0
C      1  0.4600770000000  0.5579900000000  0.5192510000000 1.0
C      1  0.4817440000000  0.5394660000000  0.5593640000000 1.0
C      1  0.5183980000000  0.4607800000000  0.5581770000000 1.0
C      1  0.4817440000000  0.4605900000000  0.4408820000000 1.0
C      1  0.5582110000000  0.5180550000000  0.4601750000000 1.0
C      1  0.4421090000000  0.4818790000000  0.4598620000000 1.0
C      1  0.5582120000000  0.4820040000000  0.5400700000000 1.0
C      1  0.5182250000000  0.4419980000000  0.5401650000000 1.0
C      1  0.4419200000000  0.5395280000000  0.5191400000000 1.0
C      1  0.5395790000000  0.5181790000000  0.4418380000000 1.0
C      1  0.4814010000000  0.4421150000000  0.4597630000000 1.0
C      1  0.4814000000000  0.5579420000000  0.5404830000000 1.0
C      1  0.5182230000000  0.5580590000000  0.4600800000000 1.0
C      1  0.5574730000000  0.5391480000000  0.4811140000000 1.0
C      1  0.5574750000000  0.4609110000000  0.5191300000000 1.0
C      1  0.4419210000000  0.4605270000000  0.4811070000000 1.0
C      1  0.4604230000000  0.5179440000000  0.5593610000000 1.0
C      1  0.4604220000000  0.4821120000000  0.4408860000000 1.0
C      1  0.5395810000000  0.4818790000000  0.5584070000000 1.0
C      1  0.5555530000000  0.5349940000000  0.5447500000000 1.0
C      1  0.5452500000000  0.5558900000000  0.5343550000000 1.0
C      1  0.5347880000000  0.5453770000000  0.5551610000000 1.0
C      1  0.4444900000000  0.5349550000000  0.4549510000000 1.0
C      1  0.5555530000000  0.4650650000000  0.4554950000000 1.0
C      1  0.4444920000000  0.4651000000000  0.5452960000000 1.0
C      1  0.4547120000000  0.5558110000000  0.4655580000000 1.0
C      1  0.5452510000000  0.4441680000000  0.4658900000000 1.0
C      1  0.4547140000000  0.4442450000000  0.5346890000000 1.0
C      1  0.4652320000000  0.5455130000000  0.4446600000000 1.0
C      1  0.5347880000000  0.4546800000000  0.4450840000000 1.0
C      1  0.4652350000000  0.4545430000000  0.5555860000000 1.0
C      1  0.5452460000000  0.5348810000000  0.5550310000000 1.0
C      1  0.5347460000000  0.5557950000000  0.5449280000000 1.0
C      1  0.5555180000000  0.5455060000000  0.5343040000000 1.0
C      1  0.4547790000000  0.5350510000000  0.4446200000000 1.0
C      1  0.4547810000000  0.4650050000000  0.5556270000000 1.0
C      1  0.5452460000000  0.4651770000000  0.4452140000000 1.0
C      1  0.4652230000000  0.5558520000000  0.4549300000000 1.0
C      1  0.4652260000000  0.4442040000000  0.5453170000000 1.0
C      1  0.5347460000000  0.4442620000000  0.4553170000000 1.0
C      1  0.4444100000000  0.5454150000000  0.4655430000000 1.0
C      1  0.4444130000000  0.4546400000000  0.5347040000000 1.0
C      1  0.5555190000000  0.4545520000000  0.4659410000000 1.0
C      1  0.4770320000000  0.5000690000000  0.5112770000000 1.0
C      1  0.5105330000000  0.4772400000000  0.5000550000000 1.0
C      1  0.4996530000000  0.5111290000000  0.4785480000000 1.0
C      1  0.5218240000000  0.4998710000000  0.4889720000000 1.0
C      1  0.4770320000000  0.4999870000000  0.4889700000000 1.0
C      1  0.5218240000000  0.5001870000000  0.5112730000000 1.0
C      1  0.4881880000000  0.4772940000000  0.4997630000000 1.0
C      1  0.5105330000000  0.5228170000000  0.5001900000000 1.0
C      1  0.4881870000000  0.5227630000000  0.5004830000000 1.0
C      1  0.4995630000000  0.5114970000000  0.5222350000000 1.0
C      1  0.4996540000000  0.4889280000000  0.5216980000000 1.0
C      1  0.4995630000000  0.4885590000000  0.4780110000000 1.0
C      1  0.5107740000000  0.4998200000000  0.4781860000000 1.0
C      1  0.4994310000000  0.4772750000000  0.5109410000000 1.0
C      1  0.4770650000000  0.5113650000000  0.5003290000000 1.0
C      1  0.4883910000000  0.5001420000000  0.5220240000000 1.0
C      1  0.4883910000000  0.4999150000000  0.4782220000000 1.0
C      1  0.5107740000000  0.5002370000000  0.5220590000000 1.0
C      1  0.4994430000000  0.4771380000000  0.4887530000000 1.0
C      1  0.4994420000000  0.5229190000000  0.5114930000000 1.0
C      1  0.4994300000000  0.5227810000000  0.4893050000000 1.0
C      1  0.5215140000000  0.5111880000000  0.4999500000000 1.0
C      1  0.5215140000000  0.4888700000000  0.5002950000000 1.0
C      1  0.4770660000000  0.4886910000000  0.4999180000000 1.0
C      1  0.4760480000000  0.5238650000000  0.5323070000000 1.0
C      1  0.5262360000000  0.4770590000000  0.5288600000000 1.0
C      1  0.5262350000000  0.5229990000000  0.4713850000000 1.0
C      1  0.4760480000000  0.4761910000000  0.4679390000000 1.0
END
