TITL C-1887015-2101-83 8.60198527533906e-08 1000000 -1874.63275234459 0 0 260 (C1) n - 1
REM
REM in /nfs/bkarasulu/CARBON/AIRSS/Generating-Clusters/GAP-ML-2020/Higher-Symm/Selected-Sizes/TryA-Only_Ih-Symm/Larger-Clusters
REM
REM
REM
REM
REM
REM ./C.cell (2cf5181f0f1d4d5b12b972d32ad12063)
REM
REM compiler GCC version 9.2.1 20190827 (Red Hat 9.2.1-1)
REM options -cpp -mtune=generic -march=x86-64 -g -O0 -fpre-include=/usr/include/finclude/math-vector-fortran.h
REM seed -1744045579 1812202610 719512515 -1956447175 -1947336442 -517110773 -2031194678 1709985991 -392941123 -1606335501 1132965381 -288093705 1609738569 280554225 1925268311 394284920 837058304 1421149362 936774350 1691982928 -461697794 -1108446131 1985596430 231893920 -1367517814 -880163714 -968701523 -1765845826 887042008 1636995290 -740691719 -2049249002 -245997527
REM
CELL 1.54180  100.00000  100.00000  100.00000   90.00000   90.00000   90.00000
LATT -1
SFAC C  
C      1  0.5324190000000  0.4370980000000  0.4943640000000 1.0
C      1  0.4289810000000  0.4945290000000  0.5280580000000 1.0
C      1  0.4942090000000  0.5324500000000  0.4361730000000 1.0
C      1  0.4727020000000  0.4320770000000  0.5055310000000 1.0
C      1  0.4675720000000  0.5637960000000  0.4941500000000 1.0
C      1  0.5280810000000  0.5709340000000  0.5054870000000 1.0
C      1  0.5683770000000  0.4945770000000  0.4723260000000 1.0
C      1  0.5629330000000  0.5056160000000  0.5322430000000 1.0
C      1  0.4362240000000  0.5058260000000  0.4675160000000 1.0
C      1  0.5054430000000  0.5275720000000  0.5682630000000 1.0
C      1  0.5055450000000  0.4719330000000  0.4290440000000 1.0
C      1  0.4942710000000  0.4676750000000  0.5627910000000 1.0
C      1  0.5326900000000  0.5647450000000  0.4942350000000 1.0
C      1  0.4351940000000  0.5057680000000  0.5326680000000 1.0
C      1  0.4942950000000  0.4673250000000  0.4352370000000 1.0
C      1  0.4721370000000  0.5701370000000  0.5053370000000 1.0
C      1  0.4682180000000  0.4385170000000  0.4943860000000 1.0
C      1  0.5280160000000  0.4306750000000  0.5055760000000 1.0
C      1  0.5618040000000  0.5057200000000  0.4679700000000 1.0
C      1  0.5693270000000  0.4944010000000  0.5278010000000 1.0
C      1  0.4298810000000  0.4946440000000  0.4720880000000 1.0
C      1  0.5055420000000  0.4721120000000  0.5690540000000 1.0
C      1  0.5053930000000  0.5278830000000  0.4298290000000 1.0
C      1  0.4942990000000  0.5319470000000  0.5617080000000 1.0
C      1  0.5409880000000  0.5086450000000  0.5662070000000 1.0
C      1  0.5134160000000  0.5730390000000  0.5428710000000 1.0
C      1  0.5717750000000  0.5420740000000  0.5134160000000 1.0
C      1  0.4579890000000  0.5097750000000  0.4323040000000 1.0
C      1  0.4578410000000  0.4865900000000  0.5718070000000 1.0
C      1  0.5429300000000  0.4866030000000  0.4268960000000 1.0
C      1  0.4902460000000  0.5676670000000  0.4579320000000 1.0
C      1  0.4938300000000  0.4285590000000  0.5434070000000 1.0
C      1  0.5134810000000  0.4282560000000  0.4579560000000 1.0
C      1  0.4323550000000  0.5420520000000  0.4901810000000 1.0
C      1  0.4269600000000  0.4571380000000  0.5133820000000 1.0
C      1  0.5663000000000  0.4590570000000  0.4912910000000 1.0
C      1  0.5430110000000  0.4865520000000  0.5728870000000 1.0
C      1  0.5095450000000  0.4254990000000  0.5431970000000 1.0
C      1  0.5730810000000  0.4569700000000  0.5133370000000 1.0
C      1  0.4578980000000  0.4866360000000  0.4277480000000 1.0
C      1  0.4578260000000  0.5097370000000  0.5672010000000 1.0
C      1  0.5407350000000  0.5087690000000  0.4334120000000 1.0
C      1  0.4903160000000  0.4328140000000  0.4579330000000 1.0
C      1  0.4912480000000  0.5665320000000  0.5406760000000 1.0
C      1  0.5133820000000  0.5722290000000  0.4578410000000 1.0
C      1  0.4334590000000  0.4592980000000  0.4912010000000 1.0
C      1  0.4277800000000  0.5421560000000  0.5133160000000 1.0
C      1  0.5672460000000  0.5421750000000  0.4902430000000 1.0
C      1  0.4937860000000  0.4569850000000  0.4449120000000 1.0
C      1  0.4577560000000  0.4480370000000  0.4938540000000 1.0
C      1  0.4488690000000  0.4943110000000  0.4495600000000 1.0
C      1  0.5061420000000  0.4506730000000  0.5499050000000 1.0
C      1  0.5057160000000  0.5504120000000  0.4488140000000 1.0
C      1  0.4938230000000  0.5423160000000  0.5520710000000 1.0
C      1  0.5497660000000  0.4499100000000  0.5062060000000 1.0
C      1  0.5430400000000  0.5550840000000  0.4937220000000 1.0
C      1  0.4496070000000  0.5511580000000  0.5056550000000 1.0
C      1  0.5501440000000  0.4937660000000  0.5496260000000 1.0
C      1  0.5521540000000  0.5061940000000  0.4576140000000 1.0
C      1  0.4448600000000  0.5062710000000  0.5430200000000 1.0
C      1  0.4937020000000  0.5429860000000  0.4456390000000 1.0
C      1  0.4570370000000  0.5543300000000  0.4936420000000 1.0
C      1  0.4456940000000  0.5063270000000  0.4569830000000 1.0
C      1  0.5061470000000  0.5496180000000  0.5492350000000 1.0
C      1  0.5058210000000  0.4497200000000  0.4482690000000 1.0
C      1  0.4937630000000  0.4575110000000  0.5529590000000 1.0
C      1  0.5503070000000  0.5517410000000  0.5057590000000 1.0
C      1  0.5426090000000  0.4468970000000  0.4938600000000 1.0
C      1  0.4503850000000  0.4508240000000  0.5061420000000 1.0
C      1  0.5531590000000  0.5061080000000  0.5424770000000 1.0
C      1  0.5493130000000  0.4938700000000  0.4503130000000 1.0
C      1  0.4481930000000  0.4942360000000  0.5503030000000 1.0
C      1  0.4497510000000  0.4807300000000  0.5451850000000 1.0
C      1  0.4800820000000  0.5428250000000  0.4505030000000 1.0
C      1  0.5426070000000  0.4514490000000  0.4799270000000 1.0
C      1  0.5477900000000  0.4803440000000  0.4551230000000 1.0
C      1  0.5485920000000  0.5200300000000  0.5424960000000 1.0
C      1  0.4505580000000  0.5199470000000  0.4571420000000 1.0
C      1  0.5196750000000  0.5448110000000  0.5477090000000 1.0
C      1  0.5193320000000  0.4548440000000  0.4498320000000 1.0
C      1  0.4798800000000  0.4575030000000  0.5484550000000 1.0
C      1  0.4551410000000  0.4523680000000  0.5196520000000 1.0
C      1  0.4571990000000  0.5494680000000  0.4800220000000 1.0
C      1  0.5451750000000  0.5501530000000  0.5192650000000 1.0
C      1  0.4497080000000  0.5199300000000  0.5427850000000 1.0
C      1  0.4801170000000  0.4572070000000  0.4497280000000 1.0
C      1  0.5428260000000  0.5502680000000  0.4800520000000 1.0
C      1  0.5475600000000  0.5200670000000  0.4575080000000 1.0
C      1  0.5487520000000  0.4802380000000  0.5447300000000 1.0
C      1  0.4505980000000  0.4808420000000  0.4546890000000 1.0
C      1  0.5196970000000  0.4554600000000  0.5484150000000 1.0
C      1  0.5191850000000  0.5452860000000  0.4505430000000 1.0
C      1  0.4799460000000  0.5424360000000  0.5474900000000 1.0
C      1  0.4547290000000  0.5494240000000  0.5191260000000 1.0
C      1  0.4576030000000  0.4525350000000  0.4799480000000 1.0
C      1  0.5448890000000  0.4513120000000  0.5197170000000 1.0
C      1  0.5075770000000  0.4198760000000  0.5301920000000 1.0
C      1  0.4233080000000  0.5299710000000  0.5075880000000 1.0
C      1  0.5307630000000  0.5067460000000  0.4239830000000 1.0
C      1  0.4934010000000  0.4263400000000  0.4700280000000 1.0
C      1  0.4932700000000  0.5759700000000  0.5307110000000 1.0
C      1  0.5076540000000  0.5766980000000  0.4700260000000 1.0
C      1  0.5737350000000  0.5300890000000  0.4932940000000 1.0
C      1  0.5786650000000  0.4689810000000  0.5077350000000 1.0
C      1  0.4240320000000  0.4692790000000  0.4932270000000 1.0
C      1  0.4699120000000  0.5066600000000  0.5736750000000 1.0
C      1  0.4700850000000  0.4923630000000  0.4232800000000 1.0
C      1  0.5309850000000  0.4921310000000  0.5784550000000 1.0
C      1  0.5078040000000  0.5790550000000  0.5310650000000 1.0
C      1  0.4209470000000  0.4689400000000  0.5077560000000 1.0
C      1  0.5311150000000  0.4922110000000  0.4208970000000 1.0
C      1  0.4933470000000  0.5745590000000  0.4698140000000 1.0
C      1  0.4929990000000  0.4224740000000  0.5305790000000 1.0
C      1  0.5077390000000  0.4241440000000  0.4702350000000 1.0
C      1  0.5754750000000  0.4692610000000  0.4931850000000 1.0
C      1  0.5758890000000  0.5298140000000  0.5076390000000 1.0
C      1  0.4254570000000  0.5301750000000  0.4932820000000 1.0
C      1  0.4701490000000  0.4923170000000  0.5758560000000 1.0
C      1  0.4698730000000  0.5066700000000  0.4254160000000 1.0
C      1  0.5307470000000  0.5067020000000  0.5753400000000 1.0
C      1  0.4225680000000  0.4942280000000  0.4845090000000 1.0
C      1  0.4945750000000  0.4926540000000  0.4217130000000 1.0
C      1  0.4928440000000  0.4234740000000  0.4945820000000 1.0
C      1  0.5769310000000  0.4940160000000  0.5155670000000 1.0
C      1  0.5766470000000  0.5056170000000  0.4926760000000 1.0
C      1  0.4217210000000  0.5054860000000  0.5073040000000 1.0
C      1  0.5059430000000  0.4843070000000  0.5767230000000 1.0
C      1  0.5058140000000  0.5154590000000  0.4225210000000 1.0
C      1  0.4943890000000  0.5072280000000  0.5765370000000 1.0
C      1  0.5159340000000  0.4229080000000  0.5059180000000 1.0
C      1  0.5073610000000  0.5782630000000  0.4945180000000 1.0
C      1  0.4845590000000  0.5774470000000  0.5057600000000 1.0
C      1  0.4221920000000  0.5056790000000  0.4927010000000 1.0
C      1  0.4943690000000  0.5072580000000  0.4221570000000 1.0
C      1  0.4927580000000  0.5778170000000  0.4943130000000 1.0
C      1  0.5771250000000  0.5053920000000  0.5072920000000 1.0
C      1  0.5761560000000  0.4942090000000  0.4844650000000 1.0
C      1  0.4217970000000  0.4940830000000  0.5155750000000 1.0
C      1  0.5058060000000  0.5154250000000  0.5760270000000 1.0
C      1  0.5059860000000  0.4843910000000  0.4218210000000 1.0
C      1  0.4945820000000  0.4926090000000  0.5770170000000 1.0
C      1  0.5156220000000  0.5781550000000  0.5059310000000 1.0
C      1  0.5075180000000  0.4228010000000  0.4946810000000 1.0
C      1  0.4846260000000  0.4241150000000  0.5059670000000 1.0
C      1  0.5387330000000  0.5294210000000  0.5477250000000 1.0
C      1  0.5297730000000  0.5499090000000  0.5383720000000 1.0
C      1  0.5496280000000  0.5398960000000  0.5287460000000 1.0
C      1  0.4605800000000  0.5287370000000  0.4512820000000 1.0
C      1  0.4599780000000  0.4712520000000  0.5496290000000 1.0
C      1  0.5384430000000  0.4702450000000  0.4500440000000 1.0
C      1  0.4712900000000  0.5486870000000  0.4605220000000 1.0
C      1  0.4704830000000  0.4523910000000  0.5385610000000 1.0
C      1  0.5288280000000  0.4503930000000  0.4600800000000 1.0
C      1  0.4513380000000  0.5394500000000  0.4712290000000 1.0
C      1  0.4499700000000  0.4616820000000  0.5297500000000 1.0
C      1  0.5478200000000  0.4612980000000  0.4705220000000 1.0
C      1  0.5389980000000  0.4703870000000  0.5492480000000 1.0
C      1  0.5296660000000  0.4508260000000  0.5387620000000 1.0
C      1  0.5494610000000  0.4610470000000  0.5296140000000 1.0
C      1  0.4604600000000  0.4711580000000  0.4497340000000 1.0
C      1  0.4601540000000  0.5286060000000  0.5479800000000 1.0
C      1  0.5380870000000  0.5295660000000  0.4516390000000 1.0
C      1  0.4714350000000  0.4520110000000  0.4601630000000 1.0
C      1  0.4704480000000  0.5483160000000  0.5380240000000 1.0
C      1  0.5288630000000  0.5502410000000  0.4604060000000 1.0
C      1  0.4517000000000  0.4619580000000  0.4704230000000 1.0
C      1  0.4497640000000  0.5395670000000  0.5288060000000 1.0
C      1  0.5480360000000  0.5398430000000  0.4713610000000 1.0
C      1  0.5739700000000  0.5177000000000  0.5142360000000 1.0
C      1  0.5202780000000  0.5155330000000  0.5747200000000 1.0
C      1  0.5163410000000  0.5776760000000  0.5204050000000 1.0
C      1  0.4264310000000  0.5180520000000  0.4862270000000 1.0
C      1  0.4222710000000  0.4796070000000  0.5162920000000 1.0
C      1  0.5748450000000  0.4797350000000  0.4843590000000 1.0
C      1  0.4819920000000  0.5137300000000  0.4263890000000 1.0
C      1  0.4822450000000  0.4856820000000  0.5739000000000 1.0
C      1  0.5204600000000  0.4836710000000  0.4222920000000 1.0
C      1  0.4862870000000  0.5735850000000  0.4819340000000 1.0
C      1  0.4842860000000  0.4250850000000  0.5205770000000 1.0
C      1  0.5143830000000  0.4260200000000  0.4823250000000 1.0
C      1  0.5767870000000  0.4795480000000  0.5163030000000 1.0
C      1  0.5204060000000  0.4835850000000  0.5765320000000 1.0
C      1  0.5164380000000  0.4230870000000  0.5204290000000 1.0
C      1  0.4242530000000  0.4797890000000  0.4844310000000 1.0
C      1  0.4248600000000  0.5178230000000  0.5142440000000 1.0
C      1  0.5723790000000  0.5179950000000  0.4862480000000 1.0
C      1  0.4822360000000  0.4857150000000  0.4248510000000 1.0
C      1  0.4820150000000  0.5136790000000  0.5722910000000 1.0
C      1  0.5202530000000  0.5155400000000  0.4242040000000 1.0
C      1  0.4864130000000  0.4277750000000  0.4821610000000 1.0
C      1  0.4844770000000  0.5757570000000  0.5201990000000 1.0
C      1  0.5143000000000  0.5751270000000  0.4821780000000 1.0
C      1  0.4727970000000  0.5668380000000  0.5194120000000 1.0
C      1  0.5638680000000  0.5180060000000  0.4748120000000 1.0
C      1  0.5197710000000  0.4722420000000  0.5669290000000 1.0
C      1  0.5258920000000  0.5667820000000  0.4819550000000 1.0
C      1  0.5276990000000  0.4328860000000  0.5198360000000 1.0
C      1  0.4750050000000  0.4363300000000  0.4821030000000 1.0
C      1  0.4331900000000  0.5180440000000  0.5258500000000 1.0
C      1  0.4331760000000  0.4805680000000  0.4727520000000 1.0
C      1  0.5672430000000  0.4801620000000  0.5277010000000 1.0
C      1  0.4820150000000  0.4741230000000  0.4331980000000 1.0
C      1  0.4820080000000  0.5251180000000  0.5637820000000 1.0
C      1  0.5194700000000  0.5272230000000  0.4331230000000 1.0
C      1  0.4731610000000  0.4347100000000  0.5197310000000 1.0
C      1  0.5655760000000  0.4804170000000  0.4729310000000 1.0
C      1  0.5196030000000  0.5269740000000  0.5654670000000 1.0
C      1  0.5257850000000  0.4346650000000  0.4820680000000 1.0
C      1  0.5279460000000  0.5684000000000  0.5196670000000 1.0
C      1  0.4746430000000  0.5653960000000  0.4819060000000 1.0
C      1  0.4315040000000  0.4803470000000  0.5279290000000 1.0
C      1  0.4346240000000  0.5180730000000  0.4745830000000 1.0
C      1  0.5653430000000  0.5179250000000  0.5256370000000 1.0
C      1  0.4819640000000  0.5253780000000  0.4345750000000 1.0
C      1  0.4819820000000  0.4742790000000  0.5652810000000 1.0
C      1  0.5197250000000  0.4720680000000  0.4315720000000 1.0
C      1  0.5547240000000  0.4739690000000  0.4672310000000 1.0
C      1  0.4727740000000  0.4686710000000  0.5557550000000 1.0
C      1  0.4688780000000  0.5556520000000  0.4730090000000 1.0
C      1  0.4427300000000  0.4741130000000  0.5333590000000 1.0
C      1  0.4443710000000  0.5269640000000  0.4688180000000 1.0
C      1  0.5557620000000  0.5270910000000  0.5312870000000 1.0
C      1  0.5259650000000  0.4666520000000  0.4428080000000 1.0
C      1  0.5260550000000  0.5326930000000  0.5546280000000 1.0
C      1  0.4730690000000  0.5311460000000  0.4443190000000 1.0
C      1  0.5333630000000  0.5571610000000  0.5259020000000 1.0
C      1  0.5313960000000  0.4442630000000  0.4728830000000 1.0
C      1  0.4672590000000  0.4455190000000  0.5260190000000 1.0
C      1  0.5542870000000  0.5270370000000  0.4690570000000 1.0
C      1  0.4729700000000  0.5308910000000  0.5542190000000 1.0
C      1  0.4691720000000  0.4458140000000  0.4729970000000 1.0
C      1  0.4429830000000  0.5270650000000  0.5314870000000 1.0
C      1  0.4441520000000  0.4744030000000  0.4669420000000 1.0
C      1  0.5561570000000  0.4736660000000  0.5330230000000 1.0
C      1  0.5256340000000  0.5330360000000  0.4440960000000 1.0
C      1  0.5262810000000  0.4670170000000  0.5558380000000 1.0
C      1  0.4729790000000  0.4684870000000  0.4429790000000 1.0
C      1  0.5331610000000  0.4440000000000  0.5262090000000 1.0
C      1  0.5315350000000  0.5570030000000  0.4729200000000 1.0
C      1  0.4669810000000  0.5558630000000  0.5255740000000 1.0
C      1  0.5031670000000  0.5636630000000  0.4528510000000 1.0
C      1  0.5631070000000  0.4535080000000  0.5037970000000 1.0
C      1  0.4526020000000  0.4967970000000  0.5634160000000 1.0
C      1  0.5037650000000  0.5630640000000  0.5460710000000 1.0
C      1  0.5038020000000  0.4371910000000  0.5473010000000 1.0
C      1  0.4369220000000  0.4539180000000  0.5037240000000 1.0
C      1  0.4363530000000  0.5471340000000  0.5031020000000 1.0
C      1  0.5634260000000  0.5473530000000  0.5031960000000 1.0
C      1  0.5461370000000  0.4962520000000  0.4368700000000 1.0
C      1  0.5465160000000  0.4961360000000  0.5629640000000 1.0
C      1  0.5032540000000  0.4366140000000  0.4527020000000 1.0
C      1  0.4529070000000  0.4968550000000  0.4363080000000 1.0
C      1  0.5393620000000  0.4598640000000  0.4593740000000 1.0
C      1  0.4599580000000  0.5400700000000  0.4598980000000 1.0
C      1  0.4592610000000  0.4607910000000  0.5401210000000 1.0
C      1  0.5393620000000  0.5407210000000  0.4600390000000 1.0
C      1  0.4592860000000  0.5399260000000  0.5393030000000 1.0
C      1  0.5401730000000  0.4599740000000  0.5399990000000 1.0
C      1  0.5401580000000  0.5405820000000  0.5392820000000 1.0
C      1  0.4600940000000  0.4606650000000  0.4592620000000 1.0
END
