TITL C-1892070-372-57 -5.00506710082035e-07 1000000 -2379.5737120553 0 0 340 (Cs) n - 1
REM
REM in /nfs/bkarasulu/CARBON/AIRSS/Generating-Clusters/GAP-ML-2020/Higher-Symm/Selected-Sizes/TryA-Only_Ih-Symm/Larger-Clusters
REM
REM
REM
REM
REM
REM ./C.cell (2cf5181f0f1d4d5b12b972d32ad12063)
REM
REM compiler GCC version 9.2.1 20190827 (Red Hat 9.2.1-1)
REM options -cpp -mtune=generic -march=x86-64 -g -O0 -fpre-include=/usr/include/finclude/math-vector-fortran.h
REM seed -1396024658 -737810223 886410878 -592579461 1228568683 -1619154461 1419864195 -1063795101 -2007235355 836673395 909706037 723767715 1175295438 -1416432620 1009707322 2040709754 883319369 -1401806051 613923041 -1678693419 -934108743 129429480 477073162 259445862 -1783673503 -1123568022 1527489600 1508892286 1703899396 -851626500 -1732784666 -1051775899 905773878
REM
CELL 1.54180  100.00000  100.00000  100.00000   90.00000   90.00000   90.00000
LATT -1
SFAC C  
C      1  0.5274110000000  0.4627550000000  0.5157660000000 1.0
C      1  0.5161060000000  0.5274880000000  0.4625710000000 1.0
C      1  0.4627110000000  0.5159000000000  0.5275130000000 1.0
C      1  0.5279840000000  0.5378310000000  0.4844990000000 1.0
C      1  0.4729830000000  0.5378910000000  0.5160320000000 1.0
C      1  0.4732380000000  0.4624970000000  0.4845080000000 1.0
C      1  0.5159340000000  0.4731340000000  0.5376010000000 1.0
C      1  0.4847080000000  0.4727600000000  0.4625750000000 1.0
C      1  0.4846180000000  0.5272870000000  0.5379430000000 1.0
C      1  0.4627830000000  0.4843280000000  0.4729230000000 1.0
C      1  0.5377710000000  0.4845910000000  0.5272080000000 1.0
C      1  0.5380070000000  0.5158660000000  0.4729670000000 1.0
C      1  0.5276960000000  0.5159010000000  0.4625270000000 1.0
C      1  0.5159500000000  0.4627550000000  0.5272270000000 1.0
C      1  0.4627550000000  0.5274870000000  0.5159230000000 1.0
C      1  0.5273930000000  0.4845900000000  0.5375870000000 1.0
C      1  0.4731510000000  0.5158650000000  0.5378240000000 1.0
C      1  0.4731070000000  0.4843290000000  0.4625990000000 1.0
C      1  0.5162150000000  0.5378920000000  0.4727990000000 1.0
C      1  0.4846920000000  0.4624970000000  0.4730540000000 1.0
C      1  0.4846830000000  0.5378300000000  0.5278010000000 1.0
C      1  0.4627590000000  0.4727590000000  0.4845240000000 1.0
C      1  0.5381270000000  0.5272880000000  0.4844330000000 1.0
C      1  0.5377850000000  0.4731340000000  0.5157490000000 1.0
C      1  0.4951930000000  0.4229180000000  0.4615890000000 1.0
C      1  0.4618150000000  0.4948000000000  0.4228800000000 1.0
C      1  0.4230540000000  0.4615120000000  0.4949680000000 1.0
C      1  0.4951310000000  0.5773960000000  0.5387720000000 1.0
C      1  0.5054890000000  0.5774760000000  0.4615350000000 1.0
C      1  0.5056980000000  0.4228620000000  0.5387690000000 1.0
C      1  0.4617170000000  0.5054040000000  0.5773680000000 1.0
C      1  0.5388740000000  0.5053820000000  0.4228520000000 1.0
C      1  0.5389920000000  0.4948390000000  0.5775260000000 1.0
C      1  0.4231590000000  0.5388030000000  0.5053290000000 1.0
C      1  0.5776440000000  0.5387100000000  0.4950070000000 1.0
C      1  0.5776680000000  0.4616510000000  0.5054890000000 1.0
C      1  0.4951520000000  0.4615130000000  0.4228690000000 1.0
C      1  0.4617750000000  0.4229170000000  0.4950080000000 1.0
C      1  0.4230630000000  0.4947990000000  0.4616330000000 1.0
C      1  0.4951910000000  0.5387090000000  0.5774600000000 1.0
C      1  0.5056750000000  0.4616500000000  0.5774840000000 1.0
C      1  0.5055110000000  0.5388040000000  0.4229750000000 1.0
C      1  0.4617180000000  0.5774750000000  0.5053070000000 1.0
C      1  0.5389530000000  0.4228630000000  0.5055120000000 1.0
C      1  0.5389550000000  0.5773970000000  0.4949470000000 1.0
C      1  0.4230370000000  0.5053810000000  0.5386910000000 1.0
C      1  0.5777100000000  0.4948400000000  0.5388060000000 1.0
C      1  0.5775510000000  0.5054060000000  0.4615310000000 1.0
C      1  0.5314430000000  0.4867390000000  0.4594560000000 1.0
C      1  0.4587960000000  0.5313450000000  0.4894090000000 1.0
C      1  0.4896570000000  0.4588790000000  0.5318030000000 1.0
C      1  0.5319610000000  0.5108760000000  0.5414630000000 1.0
C      1  0.4687950000000  0.5108640000000  0.4589250000000 1.0
C      1  0.4689810000000  0.4894620000000  0.5418310000000 1.0
C      1  0.4596550000000  0.4690810000000  0.5135820000000 1.0
C      1  0.5416780000000  0.4685620000000  0.4894520000000 1.0
C      1  0.5420140000000  0.5315050000000  0.5108780000000 1.0
C      1  0.4870670000000  0.5407150000000  0.4692350000000 1.0
C      1  0.5138550000000  0.5409020000000  0.5313190000000 1.0
C      1  0.5110620000000  0.4585310000000  0.4688410000000 1.0
C      1  0.5319880000000  0.4588800000000  0.4894720000000 1.0
C      1  0.4596410000000  0.4867380000000  0.5312600000000 1.0
C      1  0.4895910000000  0.5313450000000  0.4586130000000 1.0
C      1  0.5315020000000  0.5409020000000  0.5136710000000 1.0
C      1  0.4690260000000  0.4585300000000  0.5108780000000 1.0
C      1  0.4694190000000  0.5407150000000  0.4868840000000 1.0
C      1  0.4591080000000  0.5108640000000  0.4686120000000 1.0
C      1  0.5420150000000  0.4894630000000  0.4687960000000 1.0
C      1  0.5416480000000  0.5108760000000  0.5317760000000 1.0
C      1  0.4896370000000  0.4685610000000  0.5414940000000 1.0
C      1  0.5110620000000  0.5315040000000  0.5418300000000 1.0
C      1  0.5137660000000  0.4690820000000  0.4594700000000 1.0
C      1  0.4334380000000  0.4927020000000  0.4529420000000 1.0
C      1  0.4532460000000  0.4334720000000  0.4928690000000 1.0
C      1  0.4930780000000  0.4531720000000  0.4335080000000 1.0
C      1  0.4336550000000  0.5074720000000  0.5470570000000 1.0
C      1  0.5669980000000  0.5075190000000  0.4529800000000 1.0
C      1  0.5672710000000  0.4927050000000  0.5474010000000 1.0
C      1  0.4534120000000  0.5668330000000  0.5074170000000 1.0
C      1  0.5474070000000  0.5668200000000  0.4929150000000 1.0
C      1  0.5475800000000  0.4332860000000  0.5076320000000 1.0
C      1  0.4930490000000  0.5472440000000  0.5669140000000 1.0
C      1  0.5076210000000  0.5473440000000  0.4335220000000 1.0
C      1  0.5078020000000  0.4529940000000  0.5670820000000 1.0
C      1  0.4336930000000  0.4531710000000  0.4928950000000 1.0
C      1  0.4531240000000  0.4927030000000  0.4332550000000 1.0
C      1  0.4930530000000  0.4334730000000  0.4530610000000 1.0
C      1  0.4337060000000  0.5473430000000  0.5074380000000 1.0
C      1  0.5672660000000  0.4529950000000  0.5076160000000 1.0
C      1  0.5670970000000  0.5472450000000  0.4928650000000 1.0
C      1  0.4531650000000  0.5075180000000  0.5668150000000 1.0
C      1  0.5475860000000  0.4927050000000  0.5670860000000 1.0
C      1  0.5472400000000  0.5074730000000  0.4334700000000 1.0
C      1  0.4930990000000  0.5668190000000  0.5472240000000 1.0
C      1  0.5078180000000  0.4332850000000  0.5473950000000 1.0
C      1  0.5076000000000  0.5668330000000  0.4532290000000 1.0
C      1  0.5279520000000  0.5642880000000  0.5173760000000 1.0
C      1  0.5171940000000  0.5271030000000  0.5640240000000 1.0
C      1  0.5641220000000  0.5167610000000  0.5272080000000 1.0
C      1  0.5274200000000  0.4364180000000  0.4835300000000 1.0
C      1  0.4733690000000  0.4363310000000  0.5170420000000 1.0
C      1  0.4730310000000  0.5641290000000  0.4832270000000 1.0
C      1  0.5174130000000  0.4726890000000  0.4360680000000 1.0
C      1  0.4836370000000  0.4731130000000  0.5639430000000 1.0
C      1  0.4835040000000  0.5271390000000  0.4363900000000 1.0
C      1  0.5642070000000  0.4832970000000  0.4730910000000 1.0
C      1  0.4362440000000  0.4830840000000  0.5276090000000 1.0
C      1  0.4366370000000  0.5167910000000  0.4731260000000 1.0
C      1  0.5273930000000  0.5167600000000  0.5639380000000 1.0
C      1  0.5175590000000  0.5642880000000  0.5277690000000 1.0
C      1  0.5642080000000  0.5271030000000  0.5170100000000 1.0
C      1  0.5277920000000  0.4830860000000  0.4360590000000 1.0
C      1  0.4733080000000  0.5167920000000  0.4364530000000 1.0
C      1  0.4732760000000  0.4832950000000  0.5640240000000 1.0
C      1  0.5172260000000  0.4363320000000  0.4731840000000 1.0
C      1  0.4834090000000  0.5641290000000  0.4728480000000 1.0
C      1  0.4837160000000  0.4364170000000  0.5272350000000 1.0
C      1  0.5641270000000  0.4731140000000  0.4834520000000 1.0
C      1  0.4365730000000  0.5271380000000  0.4833220000000 1.0
C      1  0.4362530000000  0.4726870000000  0.5172300000000 1.0
C      1  0.5190370000000  0.5295160000000  0.4483670000000 1.0
C      1  0.4484660000000  0.5190270000000  0.5292770000000 1.0
C      1  0.5293590000000  0.4484580000000  0.5187160000000 1.0
C      1  0.5188850000000  0.4712010000000  0.5519010000000 1.0
C      1  0.4815990000000  0.4708890000000  0.4483460000000 1.0
C      1  0.4816650000000  0.5291410000000  0.5522060000000 1.0
C      1  0.4485270000000  0.4813510000000  0.4709890000000 1.0
C      1  0.5520690000000  0.4816500000000  0.5291680000000 1.0
C      1  0.5522510000000  0.5187510000000  0.4709310000000 1.0
C      1  0.5299160000000  0.5519950000000  0.4812990000000 1.0
C      1  0.4711370000000  0.5520810000000  0.5192160000000 1.0
C      1  0.4713050000000  0.4482380000000  0.4815970000000 1.0
C      1  0.5189010000000  0.4484570000000  0.5291740000000 1.0
C      1  0.4485510000000  0.5295140000000  0.5188540000000 1.0
C      1  0.5294600000000  0.5190280000000  0.4482820000000 1.0
C      1  0.5193990000000  0.5520820000000  0.4709530000000 1.0
C      1  0.4817810000000  0.4482390000000  0.4711210000000 1.0
C      1  0.4814830000000  0.5519940000000  0.5297330000000 1.0
C      1  0.4485300000000  0.4708890000000  0.4814150000000 1.0
C      1  0.5523900000000  0.5291420000000  0.4814810000000 1.0
C      1  0.5520860000000  0.4712010000000  0.5187000000000 1.0
C      1  0.5293530000000  0.4816500000000  0.5518850000000 1.0
C      1  0.4711150000000  0.5187500000000  0.5520670000000 1.0
C      1  0.4711720000000  0.4813520000000  0.4483440000000 1.0
C      1  0.4722090000000  0.4418230000000  0.4617430000000 1.0
C      1  0.4617910000000  0.4718960000000  0.4417330000000 1.0
C      1  0.4419240000000  0.4615800000000  0.4718240000000 1.0
C      1  0.4719000000000  0.5587000000000  0.5389650000000 1.0
C      1  0.5287660000000  0.5588080000000  0.4615550000000 1.0
C      1  0.5284700000000  0.4419640000000  0.5385490000000 1.0
C      1  0.4617920000000  0.5284030000000  0.5584600000000 1.0
C      1  0.5388110000000  0.5285410000000  0.4416710000000 1.0
C      1  0.5387210000000  0.4720770000000  0.5583840000000 1.0
C      1  0.4419580000000  0.5388300000000  0.5283740000000 1.0
C      1  0.5588100000000  0.5385880000000  0.4719920000000 1.0
C      1  0.5585870000000  0.4618270000000  0.5282670000000 1.0
C      1  0.4720070000000  0.4615810000000  0.4417400000000 1.0
C      1  0.4619270000000  0.4418230000000  0.4720250000000 1.0
C      1  0.4419160000000  0.4718950000000  0.4616070000000 1.0
C      1  0.4721760000000  0.5385870000000  0.5586260000000 1.0
C      1  0.5284520000000  0.4618270000000  0.5584020000000 1.0
C      1  0.5285560000000  0.5388310000000  0.4417740000000 1.0
C      1  0.4617390000000  0.5588070000000  0.5285830000000 1.0
C      1  0.5387340000000  0.4419640000000  0.5282840000000 1.0
C      1  0.5391480000000  0.5587010000000  0.4717160000000 1.0
C      1  0.4418550000000  0.5285390000000  0.5386280000000 1.0
C      1  0.5585690000000  0.4720770000000  0.5385350000000 1.0
C      1  0.5586430000000  0.5284050000000  0.4616070000000 1.0
C      1  0.4701940000000  0.5838680000000  0.4978190000000 1.0
C      1  0.4983680000000  0.4704170000000  0.5835890000000 1.0
C      1  0.5837000000000  0.4981260000000  0.4702690000000 1.0
C      1  0.4705280000000  0.4167810000000  0.5022810000000 1.0
C      1  0.5301870000000  0.4167410000000  0.4982150000000 1.0
C      1  0.5305040000000  0.5837820000000  0.5024630000000 1.0
C      1  0.4982440000000  0.5300480000000  0.4168370000000 1.0
C      1  0.5024520000000  0.5299430000000  0.5835900000000 1.0
C      1  0.5026370000000  0.4699860000000  0.4164700000000 1.0
C      1  0.5838350000000  0.5021290000000  0.5300350000000 1.0
C      1  0.4169640000000  0.5020990000000  0.4704100000000 1.0
C      1  0.4166490000000  0.4978770000000  0.5302270000000 1.0
C      1  0.4704550000000  0.4981240000000  0.5835170000000 1.0
C      1  0.4980020000000  0.5838680000000  0.4700110000000 1.0
C      1  0.5837740000000  0.4704180000000  0.4981820000000 1.0
C      1  0.4705920000000  0.5021000000000  0.4167810000000 1.0
C      1  0.5304100000000  0.4978790000000  0.4164640000000 1.0
C      1  0.5302200000000  0.5021290000000  0.5836510000000 1.0
C      1  0.4984010000000  0.4167400000000  0.5300020000000 1.0
C      1  0.5026460000000  0.5837820000000  0.5303210000000 1.0
C      1  0.5024660000000  0.4167820000000  0.4703430000000 1.0
C      1  0.5837740000000  0.5299440000000  0.5022680000000 1.0
C      1  0.4166550000000  0.4699850000000  0.5024540000000 1.0
C      1  0.4170210000000  0.5300470000000  0.4980620000000 1.0
C      1  0.4500220000000  0.4397220000000  0.4794830000000 1.0
C      1  0.4797310000000  0.4498300000000  0.4398080000000 1.0
C      1  0.4398280000000  0.4794050000000  0.4497200000000 1.0
C      1  0.4499960000000  0.5606800000000  0.5207950000000 1.0
C      1  0.5508320000000  0.5605820000000  0.4795460000000 1.0
C      1  0.5506820000000  0.4398050000000  0.5208960000000 1.0
C      1  0.4796590000000  0.5504960000000  0.5607040000000 1.0
C      1  0.5210240000000  0.5506830000000  0.4396770000000 1.0
C      1  0.5210710000000  0.4498820000000  0.5605710000000 1.0
C      1  0.4399350000000  0.5208260000000  0.5503960000000 1.0
C      1  0.5607340000000  0.5209040000000  0.4497320000000 1.0
C      1  0.5607510000000  0.4794390000000  0.5504920000000 1.0
C      1  0.4499030000000  0.4794050000000  0.4396440000000 1.0
C      1  0.4796670000000  0.4397230000000  0.4498370000000 1.0
C      1  0.4399930000000  0.4498290000000  0.4795470000000 1.0
C      1  0.4499160000000  0.5209020000000  0.5605510000000 1.0
C      1  0.5506770000000  0.4794390000000  0.5605660000000 1.0
C      1  0.5505790000000  0.5208270000000  0.4397500000000 1.0
C      1  0.4797300000000  0.5605810000000  0.5506490000000 1.0
C      1  0.5210810000000  0.4398040000000  0.5504970000000 1.0
C      1  0.5209780000000  0.5606810000000  0.4498130000000 1.0
C      1  0.4398610000000  0.5506820000000  0.5208410000000 1.0
C      1  0.5607550000000  0.4498830000000  0.5208860000000 1.0
C      1  0.5608880000000  0.5504960000000  0.4794740000000 1.0
C      1  0.5125500000000  0.5547860000000  0.5364210000000 1.0
C      1  0.5364640000000  0.5115640000000  0.5547570000000 1.0
C      1  0.5550210000000  0.5362250000000  0.5119140000000 1.0
C      1  0.5121090000000  0.4455340000000  0.4640880000000 1.0
C      1  0.4889260000000  0.4455910000000  0.5363060000000 1.0
C      1  0.4883460000000  0.5546260000000  0.4641810000000 1.0
C      1  0.5364680000000  0.4880580000000  0.4455450000000 1.0
C      1  0.4641920000000  0.4884250000000  0.5548140000000 1.0
C      1  0.4642480000000  0.5115740000000  0.4456390000000 1.0
C      1  0.5549610000000  0.4640470000000  0.4886970000000 1.0
C      1  0.4457560000000  0.4640260000000  0.5122650000000 1.0
C      1  0.4458240000000  0.5361980000000  0.4884330000000 1.0
C      1  0.5120980000000  0.5362240000000  0.5548370000000 1.0
C      1  0.5366040000000  0.5547870000000  0.5123660000000 1.0
C      1  0.5549420000000  0.5115640000000  0.5362790000000 1.0
C      1  0.5124480000000  0.4640280000000  0.4455710000000 1.0
C      1  0.4886160000000  0.5361990000000  0.4456400000000 1.0
C      1  0.4888820000000  0.4640460000000  0.5547770000000 1.0
C      1  0.5364910000000  0.4455920000000  0.4887410000000 1.0
C      1  0.4643650000000  0.5546250000000  0.4881640000000 1.0
C      1  0.4642730000000  0.4455330000000  0.5119250000000 1.0
C      1  0.5549970000000  0.4884260000000  0.4640070000000 1.0
C      1  0.4458220000000  0.5115730000000  0.4640660000000 1.0
C      1  0.4457300000000  0.4880570000000  0.5362850000000 1.0
C      1  0.4223880000000  0.4868550000000  0.5240750000000 1.0
C      1  0.5238410000000  0.4227380000000  0.4874440000000 1.0
C      1  0.4874470000000  0.5236040000000  0.4227550000000 1.0
C      1  0.4229540000000  0.5128940000000  0.4767200000000 1.0
C      1  0.5778140000000  0.5128650000000  0.5236530000000 1.0
C      1  0.5778140000000  0.4872860000000  0.4766750000000 1.0
C      1  0.5243770000000  0.5781090000000  0.5135350000000 1.0
C      1  0.4764400000000  0.5780570000000  0.4868920000000 1.0
C      1  0.4769370000000  0.4227050000000  0.5130970000000 1.0
C      1  0.4875700000000  0.4767320000000  0.5776050000000 1.0
C      1  0.5136260000000  0.4761940000000  0.4222110000000 1.0
C      1  0.5132680000000  0.5235400000000  0.5776580000000 1.0
C      1  0.4229380000000  0.5236030000000  0.4872650000000 1.0
C      1  0.5242580000000  0.4868570000000  0.4222030000000 1.0
C      1  0.4876300000000  0.4227370000000  0.5236570000000 1.0
C      1  0.4223950000000  0.4761920000000  0.5134430000000 1.0
C      1  0.5778420000000  0.5235410000000  0.5130830000000 1.0
C      1  0.5777900000000  0.4767340000000  0.4873850000000 1.0
C      1  0.5238380000000  0.5128640000000  0.5776290000000 1.0
C      1  0.4768600000000  0.4872840000000  0.5776300000000 1.0
C      1  0.4769020000000  0.5128950000000  0.4227710000000 1.0
C      1  0.4870750000000  0.5780570000000  0.4762570000000 1.0
C      1  0.5132820000000  0.4227060000000  0.4767510000000 1.0
C      1  0.5137190000000  0.5781090000000  0.5241930000000 1.0
C      1  0.5077370000000  0.5381810000000  0.5172050000000 1.0
C      1  0.5177960000000  0.5079660000000  0.5383830000000 1.0
C      1  0.5388250000000  0.5175820000000  0.5078410000000 1.0
C      1  0.5080670000000  0.4617070000000  0.4827770000000 1.0
C      1  0.4925780000000  0.4619620000000  0.5176470000000 1.0
C      1  0.4931930000000  0.5380070000000  0.4833530000000 1.0
C      1  0.5173890000000  0.4927940000000  0.4622610000000 1.0
C      1  0.4829200000000  0.4924730000000  0.5386860000000 1.0
C      1  0.4829940000000  0.5077250000000  0.4619420000000 1.0
C      1  0.5386090000000  0.4827240000000  0.4923680000000 1.0
C      1  0.4624470000000  0.4831510000000  0.5075690000000 1.0
C      1  0.4619060000000  0.5173550000000  0.4925950000000 1.0
C      1  0.5080250000000  0.5175810000000  0.5386410000000 1.0
C      1  0.5173890000000  0.5381810000000  0.5075530000000 1.0
C      1  0.5385670000000  0.5079660000000  0.5176110000000 1.0
C      1  0.5077530000000  0.4831520000000  0.4622630000000 1.0
C      1  0.4927780000000  0.5173550000000  0.4617220000000 1.0
C      1  0.4925530000000  0.4827230000000  0.5384260000000 1.0
C      1  0.5178310000000  0.4619620000000  0.4923930000000 1.0
C      1  0.4835370000000  0.5380070000000  0.4930100000000 1.0
C      1  0.4829620000000  0.4617060000000  0.5078830000000 1.0
C      1  0.5388690000000  0.4924740000000  0.4827360000000 1.0
C      1  0.4621260000000  0.5077240000000  0.4828110000000 1.0
C      1  0.4624450000000  0.4927920000000  0.5172060000000 1.0
C      1  0.4945870000000  0.5158040000000  0.5365990000000 1.0
C      1  0.5364190000000  0.4945410000000  0.5157060000000 1.0
C      1  0.5164750000000  0.5366110000000  0.4942280000000 1.0
C      1  0.4944580000000  0.4843150000000  0.4639150000000 1.0
C      1  0.5059750000000  0.4846310000000  0.5362440000000 1.0
C      1  0.5062360000000  0.5159560000000  0.4638230000000 1.0
C      1  0.5367210000000  0.5058930000000  0.4844830000000 1.0
C      1  0.4640570000000  0.5060950000000  0.5160400000000 1.0
C      1  0.4640850000000  0.4942390000000  0.4843720000000 1.0
C      1  0.5159120000000  0.4641100000000  0.5058160000000 1.0
C      1  0.4847330000000  0.4638360000000  0.4944650000000 1.0
C      1  0.4845090000000  0.5366400000000  0.5063630000000 1.0
C      1  0.4944120000000  0.5366110000000  0.5162910000000 1.0
C      1  0.5367830000000  0.5158040000000  0.4944020000000 1.0
C      1  0.5158910000000  0.4945410000000  0.5362350000000 1.0
C      1  0.4946490000000  0.4638360000000  0.4845490000000 1.0
C      1  0.5065460000000  0.5366410000000  0.4843250000000 1.0
C      1  0.5060010000000  0.4641100000000  0.5157280000000 1.0
C      1  0.5364290000000  0.4846320000000  0.5057910000000 1.0
C      1  0.4640070000000  0.5159550000000  0.5060530000000 1.0
C      1  0.4640990000000  0.4843140000000  0.4942750000000 1.0
C      1  0.5162230000000  0.5060970000000  0.4638730000000 1.0
C      1  0.4845550000000  0.4942390000000  0.4639010000000 1.0
C      1  0.4846680000000  0.5058920000000  0.5365370000000 1.0
C      1  0.5037780000000  0.4429330000000  0.4526400000000 1.0
C      1  0.4526160000000  0.5035240000000  0.4427050000000 1.0
C      1  0.4434260000000  0.4530080000000  0.5035610000000 1.0
C      1  0.5037930000000  0.5571170000000  0.5474120000000 1.0
C      1  0.4969920000000  0.5570140000000  0.4531350000000 1.0
C      1  0.4969710000000  0.4426930000000  0.5479420000000 1.0
C      1  0.4527470000000  0.4967710000000  0.5573850000000 1.0
C      1  0.5474550000000  0.4968020000000  0.4432000000000 1.0
C      1  0.5481030000000  0.5035310000000  0.5576520000000 1.0
C      1  0.4432160000000  0.5476570000000  0.4967520000000 1.0
C      1  0.5576370000000  0.5476810000000  0.5035980000000 1.0
C      1  0.5578630000000  0.4524260000000  0.4967710000000 1.0
C      1  0.5037450000000  0.4530100000000  0.4432410000000 1.0
C      1  0.4528260000000  0.4429320000000  0.5035940000000 1.0
C      1  0.4428880000000  0.5035230000000  0.4524340000000 1.0
C      1  0.5037820000000  0.5476800000000  0.5574540000000 1.0
C      1  0.4969560000000  0.4524250000000  0.5576780000000 1.0
C      1  0.4969350000000  0.5476580000000  0.4430320000000 1.0
C      1  0.4533180000000  0.5570130000000  0.4968100000000 1.0
C      1  0.5481270000000  0.4426940000000  0.4967850000000 1.0
C      1  0.5475960000000  0.5571180000000  0.5036090000000 1.0
C      1  0.4433840000000  0.4968000000000  0.5472720000000 1.0
C      1  0.5578370000000  0.5035310000000  0.5479180000000 1.0
C      1  0.5575680000000  0.4967720000000  0.4525620000000 1.0
C      1  0.5270810000000  0.4734310000000  0.4636800000000 1.0
C      1  0.4638650000000  0.4734300000000  0.5268970000000 1.0
C      1  0.4738560000000  0.5363680000000  0.4736730000000 1.0
C      1  0.5271170000000  0.5366780000000  0.5269330000000 1.0
END
