TITL C-1892075-7045-32 -6.288800456398e-07 1000000 -3258.97447846217 0 0 480 (Th) n - 1
REM
REM in /nfs/bkarasulu/CARBON/AIRSS/Generating-Clusters/GAP-ML-2020/Higher-Symm/Selected-Sizes/TryA-Only_Ih-Symm/Larger-Clusters
REM
REM
REM
REM
REM
REM ./C.cell (2cf5181f0f1d4d5b12b972d32ad12063)
REM
REM compiler GCC version 9.2.1 20190827 (Red Hat 9.2.1-1)
REM options -cpp -mtune=generic -march=x86-64 -g -O0 -fpre-include=/usr/include/finclude/math-vector-fortran.h
REM seed 1841855256 941461293 -1649223624 -585957749 1756799785 1836064777 1107094969 1548776578 1742515727 -2071465272 1376620596 -2015545027 -510644233 -1115501721 -274037950 -1480321470 824598091 -556140556 -165212494 106994463 -2033362163 2048195614 -1126673842 1798511925 -753002716 -1021564002 -1164639256 1437707528 119404573 -1940976333 -2045053491 -529103725 -1916846961
REM
CELL 1.54180  100.00000  100.00000  100.00000   90.00000   90.00000   90.00000
LATT -1
SFAC C  
C      1  0.4932140000000  0.5300850000000  0.5469480000000 1.0
C      1  0.5469480000000  0.4932140000000  0.5300850000000 1.0
C      1  0.5300850000000  0.5469480000000  0.4932140000000 1.0
C      1  0.4932140000000  0.4699150000000  0.4530520000000 1.0
C      1  0.5067860000000  0.4699150000000  0.5469480000000 1.0
C      1  0.5067860000000  0.5300850000000  0.4530520000000 1.0
C      1  0.5469480000000  0.5067860000000  0.4699150000000 1.0
C      1  0.4530520000000  0.5067860000000  0.5300850000000 1.0
C      1  0.4530520000000  0.4932140000000  0.4699150000000 1.0
C      1  0.5300850000000  0.4530520000000  0.5067860000000 1.0
C      1  0.4699150000000  0.4530520000000  0.4932140000000 1.0
C      1  0.4699150000000  0.5469480000000  0.5067860000000 1.0
C      1  0.5067860000000  0.5300850000000  0.5469480000000 1.0
C      1  0.4530520000000  0.4932140000000  0.5300850000000 1.0
C      1  0.4699150000000  0.5469480000000  0.4932140000000 1.0
C      1  0.5067860000000  0.4699150000000  0.4530520000000 1.0
C      1  0.4932140000000  0.4699150000000  0.5469480000000 1.0
C      1  0.4932140000000  0.5300850000000  0.4530520000000 1.0
C      1  0.4530520000000  0.5067860000000  0.4699150000000 1.0
C      1  0.5469480000000  0.5067860000000  0.5300850000000 1.0
C      1  0.5469480000000  0.4932140000000  0.4699150000000 1.0
C      1  0.4699150000000  0.4530520000000  0.5067860000000 1.0
C      1  0.5300850000000  0.4530520000000  0.4932140000000 1.0
C      1  0.5300850000000  0.5469480000000  0.5067860000000 1.0
C      1  0.4928010000000  0.4832810000000  0.4215420000000 1.0
C      1  0.4215420000000  0.4928010000000  0.4832810000000 1.0
C      1  0.4832810000000  0.4215420000000  0.4928010000000 1.0
C      1  0.4928010000000  0.5167190000000  0.5784580000000 1.0
C      1  0.5071990000000  0.5167190000000  0.4215420000000 1.0
C      1  0.5071990000000  0.4832810000000  0.5784580000000 1.0
C      1  0.4215420000000  0.5071990000000  0.5167190000000 1.0
C      1  0.5784580000000  0.5071990000000  0.4832810000000 1.0
C      1  0.5784580000000  0.4928010000000  0.5167190000000 1.0
C      1  0.4832810000000  0.5784580000000  0.5071990000000 1.0
C      1  0.5167190000000  0.5784580000000  0.4928010000000 1.0
C      1  0.5167190000000  0.4215420000000  0.5071990000000 1.0
C      1  0.5071990000000  0.4832810000000  0.4215420000000 1.0
C      1  0.5784580000000  0.4928010000000  0.4832810000000 1.0
C      1  0.5167190000000  0.4215420000000  0.4928010000000 1.0
C      1  0.5071990000000  0.5167190000000  0.5784580000000 1.0
C      1  0.4928010000000  0.5167190000000  0.4215420000000 1.0
C      1  0.4928010000000  0.4832810000000  0.5784580000000 1.0
C      1  0.5784580000000  0.5071990000000  0.5167190000000 1.0
C      1  0.4215420000000  0.5071990000000  0.4832810000000 1.0
C      1  0.4215420000000  0.4928010000000  0.5167190000000 1.0
C      1  0.5167190000000  0.5784580000000  0.5071990000000 1.0
C      1  0.4832810000000  0.5784580000000  0.4928010000000 1.0
C      1  0.4832810000000  0.4215420000000  0.5071990000000 1.0
C      1  0.4650060000000  0.4927950000000  0.4151930000000 1.0
C      1  0.4151930000000  0.4650060000000  0.4927950000000 1.0
C      1  0.4927950000000  0.4151930000000  0.4650060000000 1.0
C      1  0.4650060000000  0.5072050000000  0.5848070000000 1.0
C      1  0.5349940000000  0.5072050000000  0.4151930000000 1.0
C      1  0.5349940000000  0.4927950000000  0.5848070000000 1.0
C      1  0.4151930000000  0.5349940000000  0.5072050000000 1.0
C      1  0.5848070000000  0.5349940000000  0.4927950000000 1.0
C      1  0.5848070000000  0.4650060000000  0.5072050000000 1.0
C      1  0.4927950000000  0.5848070000000  0.5349940000000 1.0
C      1  0.5072050000000  0.5848070000000  0.4650060000000 1.0
C      1  0.5072050000000  0.4151930000000  0.5349940000000 1.0
C      1  0.5349940000000  0.4927950000000  0.4151930000000 1.0
C      1  0.5848070000000  0.4650060000000  0.4927950000000 1.0
C      1  0.5072050000000  0.4151930000000  0.4650060000000 1.0
C      1  0.5349940000000  0.5072050000000  0.5848070000000 1.0
C      1  0.4650060000000  0.5072050000000  0.4151930000000 1.0
C      1  0.4650060000000  0.4927950000000  0.5848070000000 1.0
C      1  0.5848070000000  0.5349940000000  0.5072050000000 1.0
C      1  0.4151930000000  0.5349940000000  0.4927950000000 1.0
C      1  0.4151930000000  0.4650060000000  0.5072050000000 1.0
C      1  0.5072050000000  0.5848070000000  0.5349940000000 1.0
C      1  0.4927950000000  0.5848070000000  0.4650060000000 1.0
C      1  0.4927950000000  0.4151930000000  0.5349940000000 1.0
C      1  0.5416830000000  0.5073270000000  0.4363260000000 1.0
C      1  0.4363260000000  0.5416830000000  0.5073270000000 1.0
C      1  0.5073270000000  0.4363260000000  0.5416830000000 1.0
C      1  0.5416830000000  0.4926730000000  0.5636740000000 1.0
C      1  0.4583170000000  0.4926730000000  0.4363260000000 1.0
C      1  0.4583170000000  0.5073270000000  0.5636740000000 1.0
C      1  0.4363260000000  0.4583170000000  0.4926730000000 1.0
C      1  0.5636740000000  0.4583170000000  0.5073270000000 1.0
C      1  0.5636740000000  0.5416830000000  0.4926730000000 1.0
C      1  0.5073270000000  0.5636740000000  0.4583170000000 1.0
C      1  0.4926730000000  0.5636740000000  0.5416830000000 1.0
C      1  0.4926730000000  0.4363260000000  0.4583170000000 1.0
C      1  0.4583170000000  0.5073270000000  0.4363260000000 1.0
C      1  0.5636740000000  0.5416830000000  0.5073270000000 1.0
C      1  0.4926730000000  0.4363260000000  0.5416830000000 1.0
C      1  0.4583170000000  0.4926730000000  0.5636740000000 1.0
C      1  0.5416830000000  0.4926730000000  0.4363260000000 1.0
C      1  0.5416830000000  0.5073270000000  0.5636740000000 1.0
C      1  0.5636740000000  0.4583170000000  0.4926730000000 1.0
C      1  0.4363260000000  0.4583170000000  0.5073270000000 1.0
C      1  0.4363260000000  0.5416830000000  0.4926730000000 1.0
C      1  0.4926730000000  0.5636740000000  0.4583170000000 1.0
C      1  0.5073270000000  0.5636740000000  0.5416830000000 1.0
C      1  0.5073270000000  0.4363260000000  0.4583170000000 1.0
C      1  0.5194210000000  0.4926720000000  0.5124840000000 1.0
C      1  0.5124840000000  0.5194210000000  0.4926720000000 1.0
C      1  0.4926720000000  0.5124840000000  0.5194210000000 1.0
C      1  0.5194210000000  0.5073280000000  0.4875160000000 1.0
C      1  0.4805790000000  0.5073280000000  0.5124840000000 1.0
C      1  0.4805790000000  0.4926720000000  0.4875160000000 1.0
C      1  0.5124840000000  0.4805790000000  0.5073280000000 1.0
C      1  0.4875160000000  0.4805790000000  0.4926720000000 1.0
C      1  0.4875160000000  0.5194210000000  0.5073280000000 1.0
C      1  0.4926720000000  0.4875160000000  0.4805790000000 1.0
C      1  0.5073280000000  0.4875160000000  0.5194210000000 1.0
C      1  0.5073280000000  0.5124840000000  0.4805790000000 1.0
C      1  0.4805790000000  0.4926720000000  0.5124840000000 1.0
C      1  0.4875160000000  0.5194210000000  0.4926720000000 1.0
C      1  0.5073280000000  0.5124840000000  0.5194210000000 1.0
C      1  0.4805790000000  0.5073280000000  0.4875160000000 1.0
C      1  0.5194210000000  0.5073280000000  0.5124840000000 1.0
C      1  0.5194210000000  0.4926720000000  0.4875160000000 1.0
C      1  0.4875160000000  0.4805790000000  0.5073280000000 1.0
C      1  0.5124840000000  0.4805790000000  0.4926720000000 1.0
C      1  0.5124840000000  0.5194210000000  0.5073280000000 1.0
C      1  0.5073280000000  0.4875160000000  0.4805790000000 1.0
C      1  0.4926720000000  0.4875160000000  0.5194210000000 1.0
C      1  0.4926720000000  0.5124840000000  0.4805790000000 1.0
C      1  0.5141060000000  0.5177010000000  0.4564270000000 1.0
C      1  0.4564270000000  0.5141060000000  0.5177010000000 1.0
C      1  0.5177010000000  0.4564270000000  0.5141060000000 1.0
C      1  0.5141060000000  0.4822990000000  0.5435730000000 1.0
C      1  0.4858940000000  0.4822990000000  0.4564270000000 1.0
C      1  0.4858940000000  0.5177010000000  0.5435730000000 1.0
C      1  0.4564270000000  0.4858940000000  0.4822990000000 1.0
C      1  0.5435730000000  0.4858940000000  0.5177010000000 1.0
C      1  0.5435730000000  0.5141060000000  0.4822990000000 1.0
C      1  0.5177010000000  0.5435730000000  0.4858940000000 1.0
C      1  0.4822990000000  0.5435730000000  0.5141060000000 1.0
C      1  0.4822990000000  0.4564270000000  0.4858940000000 1.0
C      1  0.4858940000000  0.5177010000000  0.4564270000000 1.0
C      1  0.5435730000000  0.5141060000000  0.5177010000000 1.0
C      1  0.4822990000000  0.4564270000000  0.5141060000000 1.0
C      1  0.4858940000000  0.4822990000000  0.5435730000000 1.0
C      1  0.5141060000000  0.4822990000000  0.4564270000000 1.0
C      1  0.5141060000000  0.5177010000000  0.5435730000000 1.0
C      1  0.5435730000000  0.4858940000000  0.4822990000000 1.0
C      1  0.4564270000000  0.4858940000000  0.5177010000000 1.0
C      1  0.4564270000000  0.5141060000000  0.4822990000000 1.0
C      1  0.4822990000000  0.5435730000000  0.4858940000000 1.0
C      1  0.5177010000000  0.5435730000000  0.5141060000000 1.0
C      1  0.5177010000000  0.4564270000000  0.4858940000000 1.0
C      1  0.5073670000000  0.5308140000000  0.5754360000000 1.0
C      1  0.5754360000000  0.5073670000000  0.5308140000000 1.0
C      1  0.5308140000000  0.5754360000000  0.5073670000000 1.0
C      1  0.5073670000000  0.4691860000000  0.4245640000000 1.0
C      1  0.4926330000000  0.4691860000000  0.5754360000000 1.0
C      1  0.4926330000000  0.5308140000000  0.4245640000000 1.0
C      1  0.5754360000000  0.4926330000000  0.4691860000000 1.0
C      1  0.4245640000000  0.4926330000000  0.5308140000000 1.0
C      1  0.4245640000000  0.5073670000000  0.4691860000000 1.0
C      1  0.5308140000000  0.4245640000000  0.4926330000000 1.0
C      1  0.4691860000000  0.4245640000000  0.5073670000000 1.0
C      1  0.4691860000000  0.5754360000000  0.4926330000000 1.0
C      1  0.4926330000000  0.5308140000000  0.5754360000000 1.0
C      1  0.4245640000000  0.5073670000000  0.5308140000000 1.0
C      1  0.4691860000000  0.5754360000000  0.5073670000000 1.0
C      1  0.4926330000000  0.4691860000000  0.4245640000000 1.0
C      1  0.5073670000000  0.4691860000000  0.5754360000000 1.0
C      1  0.5073670000000  0.5308140000000  0.4245640000000 1.0
C      1  0.4245640000000  0.4926330000000  0.4691860000000 1.0
C      1  0.5754360000000  0.4926330000000  0.5308140000000 1.0
C      1  0.5754360000000  0.5073670000000  0.4691860000000 1.0
C      1  0.4691860000000  0.4245640000000  0.4926330000000 1.0
C      1  0.5308140000000  0.4245640000000  0.5073670000000 1.0
C      1  0.5308140000000  0.5754360000000  0.4926330000000 1.0
C      1  0.4457420000000  0.4535720000000  0.4833460000000 1.0
C      1  0.4833460000000  0.4457420000000  0.4535720000000 1.0
C      1  0.4535720000000  0.4833460000000  0.4457420000000 1.0
C      1  0.4457420000000  0.5464280000000  0.5166540000000 1.0
C      1  0.5542580000000  0.5464280000000  0.4833460000000 1.0
C      1  0.5542580000000  0.4535720000000  0.5166540000000 1.0
C      1  0.4833460000000  0.5542580000000  0.5464280000000 1.0
C      1  0.5166540000000  0.5542580000000  0.4535720000000 1.0
C      1  0.5166540000000  0.4457420000000  0.5464280000000 1.0
C      1  0.4535720000000  0.5166540000000  0.5542580000000 1.0
C      1  0.5464280000000  0.5166540000000  0.4457420000000 1.0
C      1  0.5464280000000  0.4833460000000  0.5542580000000 1.0
C      1  0.5542580000000  0.4535720000000  0.4833460000000 1.0
C      1  0.5166540000000  0.4457420000000  0.4535720000000 1.0
C      1  0.5464280000000  0.4833460000000  0.4457420000000 1.0
C      1  0.5542580000000  0.5464280000000  0.5166540000000 1.0
C      1  0.4457420000000  0.5464280000000  0.4833460000000 1.0
C      1  0.4457420000000  0.4535720000000  0.5166540000000 1.0
C      1  0.5166540000000  0.5542580000000  0.5464280000000 1.0
C      1  0.4833460000000  0.5542580000000  0.4535720000000 1.0
C      1  0.4833460000000  0.4457420000000  0.5464280000000 1.0
C      1  0.5464280000000  0.5166540000000  0.5542580000000 1.0
C      1  0.4535720000000  0.5166540000000  0.4457420000000 1.0
C      1  0.4535720000000  0.4833460000000  0.5542580000000 1.0
C      1  0.4928920000000  0.4211160000000  0.5482460000000 1.0
C      1  0.5482460000000  0.4928920000000  0.4211160000000 1.0
C      1  0.4211160000000  0.5482460000000  0.4928920000000 1.0
C      1  0.4928920000000  0.5788840000000  0.4517540000000 1.0
C      1  0.5071080000000  0.5788840000000  0.5482460000000 1.0
C      1  0.5071080000000  0.4211160000000  0.4517540000000 1.0
C      1  0.5482460000000  0.5071080000000  0.5788840000000 1.0
C      1  0.4517540000000  0.5071080000000  0.4211160000000 1.0
C      1  0.4517540000000  0.4928920000000  0.5788840000000 1.0
C      1  0.4211160000000  0.4517540000000  0.5071080000000 1.0
C      1  0.5788840000000  0.4517540000000  0.4928920000000 1.0
C      1  0.5788840000000  0.5482460000000  0.5071080000000 1.0
C      1  0.5071080000000  0.4211160000000  0.5482460000000 1.0
C      1  0.4517540000000  0.4928920000000  0.4211160000000 1.0
C      1  0.5788840000000  0.5482460000000  0.4928920000000 1.0
C      1  0.5071080000000  0.5788840000000  0.4517540000000 1.0
C      1  0.4928920000000  0.5788840000000  0.5482460000000 1.0
C      1  0.4928920000000  0.4211160000000  0.4517540000000 1.0
C      1  0.4517540000000  0.5071080000000  0.5788840000000 1.0
C      1  0.5482460000000  0.5071080000000  0.4211160000000 1.0
C      1  0.5482460000000  0.4928920000000  0.5788840000000 1.0
C      1  0.5788840000000  0.4517540000000  0.5071080000000 1.0
C      1  0.4211160000000  0.4517540000000  0.4928920000000 1.0
C      1  0.4211160000000  0.5482460000000  0.5071080000000 1.0
C      1  0.4722290000000  0.4321140000000  0.4701160000000 1.0
C      1  0.4701160000000  0.4722290000000  0.4321140000000 1.0
C      1  0.4321140000000  0.4701160000000  0.4722290000000 1.0
C      1  0.4722290000000  0.5678860000000  0.5298840000000 1.0
C      1  0.5277710000000  0.5678860000000  0.4701160000000 1.0
C      1  0.5277710000000  0.4321140000000  0.5298840000000 1.0
C      1  0.4701160000000  0.5277710000000  0.5678860000000 1.0
C      1  0.5298840000000  0.5277710000000  0.4321140000000 1.0
C      1  0.5298840000000  0.4722290000000  0.5678860000000 1.0
C      1  0.4321140000000  0.5298840000000  0.5277710000000 1.0
C      1  0.5678860000000  0.5298840000000  0.4722290000000 1.0
C      1  0.5678860000000  0.4701160000000  0.5277710000000 1.0
C      1  0.5277710000000  0.4321140000000  0.4701160000000 1.0
C      1  0.5298840000000  0.4722290000000  0.4321140000000 1.0
C      1  0.5678860000000  0.4701160000000  0.4722290000000 1.0
C      1  0.5277710000000  0.5678860000000  0.5298840000000 1.0
C      1  0.4722290000000  0.5678860000000  0.4701160000000 1.0
C      1  0.4722290000000  0.4321140000000  0.5298840000000 1.0
C      1  0.5298840000000  0.5277710000000  0.5678860000000 1.0
C      1  0.4701160000000  0.5277710000000  0.4321140000000 1.0
C      1  0.4701160000000  0.4722290000000  0.5678860000000 1.0
C      1  0.5678860000000  0.5298840000000  0.5277710000000 1.0
C      1  0.4321140000000  0.5298840000000  0.4722290000000 1.0
C      1  0.4321140000000  0.4701160000000  0.5277710000000 1.0
C      1  0.5291520000000  0.5578120000000  0.4597660000000 1.0
C      1  0.4597660000000  0.5291520000000  0.5578120000000 1.0
C      1  0.5578120000000  0.4597660000000  0.5291520000000 1.0
C      1  0.5291520000000  0.4421880000000  0.5402340000000 1.0
C      1  0.4708480000000  0.4421880000000  0.4597660000000 1.0
C      1  0.4708480000000  0.5578120000000  0.5402340000000 1.0
C      1  0.4597660000000  0.4708480000000  0.4421880000000 1.0
C      1  0.5402340000000  0.4708480000000  0.5578120000000 1.0
C      1  0.5402340000000  0.5291520000000  0.4421880000000 1.0
C      1  0.5578120000000  0.5402340000000  0.4708480000000 1.0
C      1  0.4421880000000  0.5402340000000  0.5291520000000 1.0
C      1  0.4421880000000  0.4597660000000  0.4708480000000 1.0
C      1  0.4708480000000  0.5578120000000  0.4597660000000 1.0
C      1  0.5402340000000  0.5291520000000  0.5578120000000 1.0
C      1  0.4421880000000  0.4597660000000  0.5291520000000 1.0
C      1  0.4708480000000  0.4421880000000  0.5402340000000 1.0
C      1  0.5291520000000  0.4421880000000  0.4597660000000 1.0
C      1  0.5291520000000  0.5578120000000  0.5402340000000 1.0
C      1  0.5402340000000  0.4708480000000  0.4421880000000 1.0
C      1  0.4597660000000  0.4708480000000  0.5578120000000 1.0
C      1  0.4597660000000  0.5291520000000  0.4421880000000 1.0
C      1  0.4421880000000  0.5402340000000  0.4708480000000 1.0
C      1  0.5578120000000  0.5402340000000  0.5291520000000 1.0
C      1  0.5578120000000  0.4597660000000  0.4708480000000 1.0
C      1  0.5697180000000  0.5150500000000  0.4921630000000 1.0
C      1  0.4921630000000  0.5697180000000  0.5150500000000 1.0
C      1  0.5150500000000  0.4921630000000  0.5697180000000 1.0
C      1  0.5697180000000  0.4849500000000  0.5078370000000 1.0
C      1  0.4302820000000  0.4849500000000  0.4921630000000 1.0
C      1  0.4302820000000  0.5150500000000  0.5078370000000 1.0
C      1  0.4921630000000  0.4302820000000  0.4849500000000 1.0
C      1  0.5078370000000  0.4302820000000  0.5150500000000 1.0
C      1  0.5078370000000  0.5697180000000  0.4849500000000 1.0
C      1  0.5150500000000  0.5078370000000  0.4302820000000 1.0
C      1  0.4849500000000  0.5078370000000  0.5697180000000 1.0
C      1  0.4849500000000  0.4921630000000  0.4302820000000 1.0
C      1  0.4302820000000  0.5150500000000  0.4921630000000 1.0
C      1  0.5078370000000  0.5697180000000  0.5150500000000 1.0
C      1  0.4849500000000  0.4921630000000  0.5697180000000 1.0
C      1  0.4302820000000  0.4849500000000  0.5078370000000 1.0
C      1  0.5697180000000  0.4849500000000  0.4921630000000 1.0
C      1  0.5697180000000  0.5150500000000  0.5078370000000 1.0
C      1  0.5078370000000  0.4302820000000  0.4849500000000 1.0
C      1  0.4921630000000  0.4302820000000  0.5150500000000 1.0
C      1  0.4921630000000  0.5697180000000  0.4849500000000 1.0
C      1  0.4849500000000  0.5078370000000  0.4302820000000 1.0
C      1  0.5150500000000  0.5078370000000  0.5697180000000 1.0
C      1  0.5150500000000  0.4921630000000  0.4302820000000 1.0
C      1  0.4509990000000  0.4616210000000  0.4513400000000 1.0
C      1  0.4513400000000  0.4509990000000  0.4616210000000 1.0
C      1  0.4616210000000  0.4513400000000  0.4509990000000 1.0
C      1  0.4509990000000  0.5383790000000  0.5486600000000 1.0
C      1  0.5490010000000  0.5383790000000  0.4513400000000 1.0
C      1  0.5490010000000  0.4616210000000  0.5486600000000 1.0
C      1  0.4513400000000  0.5490010000000  0.5383790000000 1.0
C      1  0.5486600000000  0.5490010000000  0.4616210000000 1.0
C      1  0.5486600000000  0.4509990000000  0.5383790000000 1.0
C      1  0.4616210000000  0.5486600000000  0.5490010000000 1.0
C      1  0.5383790000000  0.5486600000000  0.4509990000000 1.0
C      1  0.5383790000000  0.4513400000000  0.5490010000000 1.0
C      1  0.5490010000000  0.4616210000000  0.4513400000000 1.0
C      1  0.5486600000000  0.4509990000000  0.4616210000000 1.0
C      1  0.5383790000000  0.4513400000000  0.4509990000000 1.0
C      1  0.5490010000000  0.5383790000000  0.5486600000000 1.0
C      1  0.4509990000000  0.5383790000000  0.4513400000000 1.0
C      1  0.4509990000000  0.4616210000000  0.5486600000000 1.0
C      1  0.5486600000000  0.5490010000000  0.5383790000000 1.0
C      1  0.4513400000000  0.5490010000000  0.4616210000000 1.0
C      1  0.4513400000000  0.4509990000000  0.5383790000000 1.0
C      1  0.5383790000000  0.5486600000000  0.5490010000000 1.0
C      1  0.4616210000000  0.5486600000000  0.4509990000000 1.0
C      1  0.4616210000000  0.4513400000000  0.5490010000000 1.0
C      1  0.5489230000000  0.5294020000000  0.4641740000000 1.0
C      1  0.4641740000000  0.5489230000000  0.5294020000000 1.0
C      1  0.5294020000000  0.4641740000000  0.5489230000000 1.0
C      1  0.5489230000000  0.4705980000000  0.5358260000000 1.0
C      1  0.4510770000000  0.4705980000000  0.4641740000000 1.0
C      1  0.4510770000000  0.5294020000000  0.5358260000000 1.0
C      1  0.4641740000000  0.4510770000000  0.4705980000000 1.0
C      1  0.5358260000000  0.4510770000000  0.5294020000000 1.0
C      1  0.5358260000000  0.5489230000000  0.4705980000000 1.0
C      1  0.5294020000000  0.5358260000000  0.4510770000000 1.0
C      1  0.4705980000000  0.5358260000000  0.5489230000000 1.0
C      1  0.4705980000000  0.4641740000000  0.4510770000000 1.0
C      1  0.4510770000000  0.5294020000000  0.4641740000000 1.0
C      1  0.5358260000000  0.5489230000000  0.5294020000000 1.0
C      1  0.4705980000000  0.4641740000000  0.5489230000000 1.0
C      1  0.4510770000000  0.4705980000000  0.5358260000000 1.0
C      1  0.5489230000000  0.4705980000000  0.4641740000000 1.0
C      1  0.5489230000000  0.5294020000000  0.5358260000000 1.0
C      1  0.5358260000000  0.4510770000000  0.4705980000000 1.0
C      1  0.4641740000000  0.4510770000000  0.5294020000000 1.0
C      1  0.4641740000000  0.5489230000000  0.4705980000000 1.0
C      1  0.4705980000000  0.5358260000000  0.4510770000000 1.0
C      1  0.5294020000000  0.5358260000000  0.5489230000000 1.0
C      1  0.5294020000000  0.4641740000000  0.4510770000000 1.0
C      1  0.4711550000000  0.5134250000000  0.4286740000000 1.0
C      1  0.4286740000000  0.4711550000000  0.5134250000000 1.0
C      1  0.5134250000000  0.4286740000000  0.4711550000000 1.0
C      1  0.4711550000000  0.4865750000000  0.5713260000000 1.0
C      1  0.5288450000000  0.4865750000000  0.4286740000000 1.0
C      1  0.5288450000000  0.5134250000000  0.5713260000000 1.0
C      1  0.4286740000000  0.5288450000000  0.4865750000000 1.0
C      1  0.5713260000000  0.5288450000000  0.5134250000000 1.0
C      1  0.5713260000000  0.4711550000000  0.4865750000000 1.0
C      1  0.5134250000000  0.5713260000000  0.5288450000000 1.0
C      1  0.4865750000000  0.5713260000000  0.4711550000000 1.0
C      1  0.4865750000000  0.4286740000000  0.5288450000000 1.0
C      1  0.5288450000000  0.5134250000000  0.4286740000000 1.0
C      1  0.5713260000000  0.4711550000000  0.5134250000000 1.0
C      1  0.4865750000000  0.4286740000000  0.4711550000000 1.0
C      1  0.5288450000000  0.4865750000000  0.5713260000000 1.0
C      1  0.4711550000000  0.4865750000000  0.4286740000000 1.0
C      1  0.4711550000000  0.5134250000000  0.5713260000000 1.0
C      1  0.5713260000000  0.5288450000000  0.4865750000000 1.0
C      1  0.4286740000000  0.5288450000000  0.5134250000000 1.0
C      1  0.4286740000000  0.4711550000000  0.4865750000000 1.0
C      1  0.4865750000000  0.5713260000000  0.5288450000000 1.0
C      1  0.5134250000000  0.5713260000000  0.4711550000000 1.0
C      1  0.5134250000000  0.4286740000000  0.5288450000000 1.0
C      1  0.5265240000000  0.5371950000000  0.4740840000000 1.0
C      1  0.4740840000000  0.5265240000000  0.5371950000000 1.0
C      1  0.5371950000000  0.4740840000000  0.5265240000000 1.0
C      1  0.5265240000000  0.4628050000000  0.5259160000000 1.0
C      1  0.4734760000000  0.4628050000000  0.4740840000000 1.0
C      1  0.4734760000000  0.5371950000000  0.5259160000000 1.0
C      1  0.4740840000000  0.4734760000000  0.4628050000000 1.0
C      1  0.5259160000000  0.4734760000000  0.5371950000000 1.0
C      1  0.5259160000000  0.5265240000000  0.4628050000000 1.0
C      1  0.5371950000000  0.5259160000000  0.4734760000000 1.0
C      1  0.4628050000000  0.5259160000000  0.5265240000000 1.0
C      1  0.4628050000000  0.4740840000000  0.4734760000000 1.0
C      1  0.4734760000000  0.5371950000000  0.4740840000000 1.0
C      1  0.5259160000000  0.5265240000000  0.5371950000000 1.0
C      1  0.4628050000000  0.4740840000000  0.5265240000000 1.0
C      1  0.4734760000000  0.4628050000000  0.5259160000000 1.0
C      1  0.5265240000000  0.4628050000000  0.4740840000000 1.0
C      1  0.5265240000000  0.5371950000000  0.5259160000000 1.0
C      1  0.5259160000000  0.4734760000000  0.4628050000000 1.0
C      1  0.4740840000000  0.4734760000000  0.5371950000000 1.0
C      1  0.4740840000000  0.5265240000000  0.4628050000000 1.0
C      1  0.4628050000000  0.5259160000000  0.4734760000000 1.0
C      1  0.5371950000000  0.5259160000000  0.5265240000000 1.0
C      1  0.5371950000000  0.4740840000000  0.4734760000000 1.0
C      1  0.4820180000000  0.5360790000000  0.5678990000000 1.0
C      1  0.5678990000000  0.4820180000000  0.5360790000000 1.0
C      1  0.5360790000000  0.5678990000000  0.4820180000000 1.0
C      1  0.4820180000000  0.4639210000000  0.4321010000000 1.0
C      1  0.5179820000000  0.4639210000000  0.5678990000000 1.0
C      1  0.5179820000000  0.5360790000000  0.4321010000000 1.0
C      1  0.5678990000000  0.5179820000000  0.4639210000000 1.0
C      1  0.4321010000000  0.5179820000000  0.5360790000000 1.0
C      1  0.4321010000000  0.4820180000000  0.4639210000000 1.0
C      1  0.5360790000000  0.4321010000000  0.5179820000000 1.0
C      1  0.4639210000000  0.4321010000000  0.4820180000000 1.0
C      1  0.4639210000000  0.5678990000000  0.5179820000000 1.0
C      1  0.5179820000000  0.5360790000000  0.5678990000000 1.0
C      1  0.4321010000000  0.4820180000000  0.5360790000000 1.0
C      1  0.4639210000000  0.5678990000000  0.4820180000000 1.0
C      1  0.5179820000000  0.4639210000000  0.4321010000000 1.0
C      1  0.4820180000000  0.4639210000000  0.5678990000000 1.0
C      1  0.4820180000000  0.5360790000000  0.4321010000000 1.0
C      1  0.4321010000000  0.5179820000000  0.4639210000000 1.0
C      1  0.5678990000000  0.5179820000000  0.5360790000000 1.0
C      1  0.5678990000000  0.4820180000000  0.4639210000000 1.0
C      1  0.4639210000000  0.4321010000000  0.5179820000000 1.0
C      1  0.5360790000000  0.4321010000000  0.4820180000000 1.0
C      1  0.5360790000000  0.5678990000000  0.5179820000000 1.0
C      1  0.4922570000000  0.4447580000000  0.4913350000000 1.0
C      1  0.4913350000000  0.4922570000000  0.4447580000000 1.0
C      1  0.4447580000000  0.4913350000000  0.4922570000000 1.0
C      1  0.4922570000000  0.5552420000000  0.5086650000000 1.0
C      1  0.5077430000000  0.5552420000000  0.4913350000000 1.0
C      1  0.5077430000000  0.4447580000000  0.5086650000000 1.0
C      1  0.4913350000000  0.5077430000000  0.5552420000000 1.0
C      1  0.5086650000000  0.5077430000000  0.4447580000000 1.0
C      1  0.5086650000000  0.4922570000000  0.5552420000000 1.0
C      1  0.4447580000000  0.5086650000000  0.5077430000000 1.0
C      1  0.5552420000000  0.5086650000000  0.4922570000000 1.0
C      1  0.5552420000000  0.4913350000000  0.5077430000000 1.0
C      1  0.5077430000000  0.4447580000000  0.4913350000000 1.0
C      1  0.5086650000000  0.4922570000000  0.4447580000000 1.0
C      1  0.5552420000000  0.4913350000000  0.4922570000000 1.0
C      1  0.5077430000000  0.5552420000000  0.5086650000000 1.0
C      1  0.4922570000000  0.5552420000000  0.4913350000000 1.0
C      1  0.4922570000000  0.4447580000000  0.5086650000000 1.0
C      1  0.5086650000000  0.5077430000000  0.5552420000000 1.0
C      1  0.4913350000000  0.5077430000000  0.4447580000000 1.0
C      1  0.4913350000000  0.4922570000000  0.5552420000000 1.0
C      1  0.5552420000000  0.5086650000000  0.5077430000000 1.0
C      1  0.4447580000000  0.5086650000000  0.4922570000000 1.0
C      1  0.4447580000000  0.4913350000000  0.5077430000000 1.0
C      1  0.5409170000000  0.5532630000000  0.4842430000000 1.0
C      1  0.4842430000000  0.5409170000000  0.5532630000000 1.0
C      1  0.5532630000000  0.4842430000000  0.5409170000000 1.0
C      1  0.5409170000000  0.4467370000000  0.5157570000000 1.0
C      1  0.4590830000000  0.4467370000000  0.4842430000000 1.0
C      1  0.4590830000000  0.5532630000000  0.5157570000000 1.0
C      1  0.4842430000000  0.4590830000000  0.4467370000000 1.0
C      1  0.5157570000000  0.4590830000000  0.5532630000000 1.0
C      1  0.5157570000000  0.5409170000000  0.4467370000000 1.0
C      1  0.5532630000000  0.5157570000000  0.4590830000000 1.0
C      1  0.4467370000000  0.5157570000000  0.5409170000000 1.0
C      1  0.4467370000000  0.4842430000000  0.4590830000000 1.0
C      1  0.4590830000000  0.5532630000000  0.4842430000000 1.0
C      1  0.5157570000000  0.5409170000000  0.5532630000000 1.0
C      1  0.4467370000000  0.4842430000000  0.5409170000000 1.0
C      1  0.4590830000000  0.4467370000000  0.5157570000000 1.0
C      1  0.5409170000000  0.4467370000000  0.4842430000000 1.0
C      1  0.5409170000000  0.5532630000000  0.5157570000000 1.0
C      1  0.5157570000000  0.4590830000000  0.4467370000000 1.0
C      1  0.4842430000000  0.4590830000000  0.5532630000000 1.0
C      1  0.4842430000000  0.5409170000000  0.4467370000000 1.0
C      1  0.4467370000000  0.5157570000000  0.4590830000000 1.0
C      1  0.5532630000000  0.5157570000000  0.5409170000000 1.0
C      1  0.5532630000000  0.4842430000000  0.4590830000000 1.0
C      1  0.4661050000000  0.4920910000000  0.4921220000000 1.0
C      1  0.4921220000000  0.4661050000000  0.4920910000000 1.0
C      1  0.4920910000000  0.4921220000000  0.4661050000000 1.0
C      1  0.4661050000000  0.5079090000000  0.5078780000000 1.0
C      1  0.5338950000000  0.5079090000000  0.4921220000000 1.0
C      1  0.5338950000000  0.4920910000000  0.5078780000000 1.0
C      1  0.4921220000000  0.5338950000000  0.5079090000000 1.0
C      1  0.5078780000000  0.5338950000000  0.4920910000000 1.0
C      1  0.5078780000000  0.4661050000000  0.5079090000000 1.0
C      1  0.4920910000000  0.5078780000000  0.5338950000000 1.0
C      1  0.5079090000000  0.5078780000000  0.4661050000000 1.0
C      1  0.5079090000000  0.4921220000000  0.5338950000000 1.0
C      1  0.5338950000000  0.4920910000000  0.4921220000000 1.0
C      1  0.5078780000000  0.4661050000000  0.4920910000000 1.0
C      1  0.5079090000000  0.4921220000000  0.4661050000000 1.0
C      1  0.5338950000000  0.5079090000000  0.5078780000000 1.0
C      1  0.4661050000000  0.5079090000000  0.4921220000000 1.0
C      1  0.4661050000000  0.4920910000000  0.5078780000000 1.0
C      1  0.5078780000000  0.5338950000000  0.5079090000000 1.0
C      1  0.4921220000000  0.5338950000000  0.4920910000000 1.0
C      1  0.4921220000000  0.4661050000000  0.5079090000000 1.0
C      1  0.5079090000000  0.5078780000000  0.5338950000000 1.0
C      1  0.4920910000000  0.5078780000000  0.4661050000000 1.0
C      1  0.4920910000000  0.4921220000000  0.5338950000000 1.0
END
