TITL C-1887021-2772-16 -3.02803124199803e-07 1000000 -3248.21719861086 0 0 460 (D2d) n - 1
REM
REM in /nfs/bkarasulu/CARBON/AIRSS/Generating-Clusters/GAP-ML-2020/Higher-Symm/Selected-Sizes/TryA-Only_Ih-Symm/Larger-Clusters
REM
REM
REM
REM
REM
REM ./C.cell (2cf5181f0f1d4d5b12b972d32ad12063)
REM
REM compiler GCC version 9.2.1 20190827 (Red Hat 9.2.1-1)
REM options -cpp -mtune=generic -march=x86-64 -g -O0 -fpre-include=/usr/include/finclude/math-vector-fortran.h
REM seed 1032290834 1850078238 1536390198 1661951589 1585070309 1858960534 2043338958 505930742 332743530 -1835146556 -1361310932 -729766389 -201809856 -1907242418 -1237916638 -1593014021 -305846030 1869777913 1872272764 -1019180297 1583173431 1639364848 1884129504 -928908257 -1888486496 -883106717 -894524922 1794089464 -2034338064 -433550668 305759269 1499995954 -2094229834
REM
CELL 1.54180  100.00000  100.00000  100.00000   90.00000   90.00000   90.00000
LATT -1
SFAC C  
C      1  0.4411310000000  0.4903130000000  0.4509430000000 1.0
C      1  0.4519080000000  0.4406490000000  0.4908440000000 1.0
C      1  0.4932540000000  0.4527530000000  0.4425820000000 1.0
C      1  0.4411330000000  0.5093660000000  0.5489500000000 1.0
C      1  0.5584290000000  0.5093650000000  0.4509380000000 1.0
C      1  0.5584290000000  0.4903130000000  0.5489450000000 1.0
C      1  0.4519060000000  0.5590210000000  0.5090390000000 1.0
C      1  0.5476540000000  0.5590250000000  0.4908440000000 1.0
C      1  0.5476540000000  0.4406530000000  0.5090390000000 1.0
C      1  0.4932550000000  0.5469260000000  0.5573020000000 1.0
C      1  0.5063070000000  0.5469260000000  0.4425810000000 1.0
C      1  0.5063060000000  0.4527530000000  0.5573010000000 1.0
C      1  0.4411330000000  0.4508300000000  0.4904150000000 1.0
C      1  0.4519060000000  0.4907410000000  0.4407590000000 1.0
C      1  0.4932550000000  0.4424790000000  0.4528550000000 1.0
C      1  0.4411310000000  0.5488370000000  0.5094670000000 1.0
C      1  0.5584290000000  0.4508350000000  0.5094680000000 1.0
C      1  0.5584290000000  0.5488420000000  0.4904150000000 1.0
C      1  0.4519080000000  0.5089360000000  0.5591320000000 1.0
C      1  0.5476540000000  0.4907420000000  0.5591280000000 1.0
C      1  0.5476540000000  0.5089360000000  0.4407550000000 1.0
C      1  0.4932540000000  0.5571980000000  0.5470280000000 1.0
C      1  0.5063060000000  0.4424800000000  0.5470270000000 1.0
C      1  0.5063070000000  0.5571990000000  0.4528550000000 1.0
C      1  0.5316900000000  0.4561070000000  0.5535980000000 1.0
C      1  0.5527460000000  0.5338020000000  0.4556680000000 1.0
C      1  0.4569660000000  0.5539370000000  0.5336900000000 1.0
C      1  0.5316910000000  0.5435710000000  0.4462850000000 1.0
C      1  0.4678710000000  0.5435710000000  0.5535990000000 1.0
C      1  0.4678700000000  0.4561070000000  0.4462860000000 1.0
C      1  0.5527460000000  0.4658760000000  0.5442150000000 1.0
C      1  0.4468140000000  0.4658760000000  0.4556710000000 1.0
C      1  0.4468160000000  0.5338020000000  0.5442190000000 1.0
C      1  0.4569680000000  0.4457350000000  0.4661920000000 1.0
C      1  0.5425930000000  0.4457380000000  0.5336900000000 1.0
C      1  0.5425940000000  0.5539400000000  0.4661930000000 1.0
C      1  0.5316910000000  0.5534950000000  0.4562090000000 1.0
C      1  0.5527460000000  0.4555650000000  0.5339040000000 1.0
C      1  0.4569680000000  0.5335880000000  0.5540450000000 1.0
C      1  0.5316900000000  0.4461830000000  0.5436730000000 1.0
C      1  0.4678700000000  0.5534940000000  0.5436730000000 1.0
C      1  0.4678710000000  0.4461810000000  0.4562090000000 1.0
C      1  0.5527460000000  0.5441130000000  0.4659790000000 1.0
C      1  0.4468160000000  0.4555620000000  0.4659790000000 1.0
C      1  0.4468140000000  0.5441100000000  0.5339050000000 1.0
C      1  0.4569660000000  0.4660910000000  0.4458430000000 1.0
C      1  0.5425940000000  0.5335880000000  0.4458400000000 1.0
C      1  0.5425930000000  0.4660900000000  0.5540420000000 1.0
C      1  0.5065860000000  0.4827920000000  0.4635080000000 1.0
C      1  0.4657300000000  0.4998140000000  0.4893350000000 1.0
C      1  0.4829660000000  0.4634760000000  0.5049880000000 1.0
C      1  0.5065860000000  0.5168860000000  0.5363760000000 1.0
C      1  0.4929760000000  0.5168860000000  0.4635080000000 1.0
C      1  0.4929740000000  0.4827920000000  0.5363750000000 1.0
C      1  0.4657310000000  0.4998630000000  0.5105480000000 1.0
C      1  0.5338310000000  0.4998630000000  0.4893350000000 1.0
C      1  0.5338310000000  0.4998140000000  0.5105480000000 1.0
C      1  0.4829670000000  0.5362010000000  0.4948950000000 1.0
C      1  0.5165950000000  0.5362010000000  0.5049880000000 1.0
C      1  0.5165950000000  0.4634770000000  0.4948950000000 1.0
C      1  0.5065860000000  0.4634050000000  0.4828950000000 1.0
C      1  0.4657310000000  0.4892320000000  0.4999170000000 1.0
C      1  0.4829670000000  0.5048860000000  0.4635800000000 1.0
C      1  0.5065860000000  0.5362730000000  0.5169890000000 1.0
C      1  0.4929740000000  0.4634050000000  0.5169880000000 1.0
C      1  0.4929760000000  0.5362730000000  0.4828950000000 1.0
C      1  0.4657300000000  0.5104460000000  0.4999660000000 1.0
C      1  0.5338310000000  0.4892320000000  0.4999660000000 1.0
C      1  0.5338310000000  0.5104450000000  0.4999170000000 1.0
C      1  0.4829660000000  0.4947930000000  0.5363040000000 1.0
C      1  0.5165950000000  0.5048850000000  0.5363040000000 1.0
C      1  0.5165950000000  0.4947920000000  0.4635790000000 1.0
C      1  0.4578530000000  0.4703980000000  0.5108610000000 1.0
C      1  0.5189450000000  0.4623090000000  0.4732470000000 1.0
C      1  0.4707800000000  0.5141380000000  0.4617780000000 1.0
C      1  0.4578530000000  0.5292790000000  0.4890230000000 1.0
C      1  0.5417080000000  0.5292790000000  0.5108610000000 1.0
C      1  0.5417090000000  0.4703980000000  0.4890230000000 1.0
C      1  0.5189450000000  0.5373680000000  0.5266370000000 1.0
C      1  0.4806170000000  0.5373680000000  0.4732470000000 1.0
C      1  0.4806150000000  0.4623090000000  0.5266360000000 1.0
C      1  0.4707780000000  0.4855410000000  0.5381070000000 1.0
C      1  0.5287820000000  0.4855400000000  0.4617770000000 1.0
C      1  0.5287820000000  0.5141370000000  0.5381060000000 1.0
C      1  0.4578530000000  0.5107580000000  0.4705020000000 1.0
C      1  0.5189450000000  0.4731440000000  0.4624120000000 1.0
C      1  0.4707780000000  0.4616740000000  0.5142390000000 1.0
C      1  0.4578530000000  0.4889200000000  0.5293830000000 1.0
C      1  0.5417090000000  0.5107580000000  0.5293820000000 1.0
C      1  0.5417080000000  0.4889200000000  0.4705010000000 1.0
C      1  0.5189450000000  0.5265340000000  0.5374710000000 1.0
C      1  0.4806150000000  0.4731440000000  0.5374710000000 1.0
C      1  0.4806170000000  0.5265340000000  0.4624120000000 1.0
C      1  0.4707800000000  0.5380020000000  0.4856430000000 1.0
C      1  0.5287820000000  0.4616750000000  0.4856430000000 1.0
C      1  0.5287820000000  0.5380030000000  0.5142400000000 1.0
C      1  0.5796310000000  0.4926310000000  0.5170790000000 1.0
C      1  0.5164100000000  0.5814430000000  0.4926710000000 1.0
C      1  0.4934230000000  0.5166280000000  0.5813610000000 1.0
C      1  0.5796310000000  0.5070460000000  0.4828040000000 1.0
C      1  0.4199330000000  0.5070290000000  0.5170970000000 1.0
C      1  0.4199270000000  0.4926140000000  0.4828220000000 1.0
C      1  0.5164110000000  0.4182340000000  0.5072120000000 1.0
C      1  0.4831510000000  0.4182340000000  0.4926710000000 1.0
C      1  0.4831480000000  0.5814430000000  0.5072120000000 1.0
C      1  0.4934210000000  0.4830510000000  0.4185230000000 1.0
C      1  0.5061390000000  0.4830510000000  0.5813600000000 1.0
C      1  0.5061380000000  0.5166280000000  0.4185230000000 1.0
C      1  0.5796310000000  0.5169770000000  0.4927340000000 1.0
C      1  0.5164110000000  0.4925690000000  0.5815460000000 1.0
C      1  0.4934210000000  0.5812570000000  0.5167300000000 1.0
C      1  0.5796310000000  0.4827010000000  0.5071490000000 1.0
C      1  0.4199270000000  0.5169590000000  0.5071660000000 1.0
C      1  0.4199330000000  0.4826830000000  0.4927520000000 1.0
C      1  0.5164100000000  0.5071100000000  0.4183370000000 1.0
C      1  0.4831480000000  0.4925690000000  0.4183380000000 1.0
C      1  0.4831510000000  0.5071100000000  0.5815470000000 1.0
C      1  0.4934230000000  0.4184200000000  0.4831530000000 1.0
C      1  0.5061380000000  0.5812580000000  0.4831530000000 1.0
C      1  0.5061390000000  0.4184200000000  0.5167300000000 1.0
C      1  0.4280990000000  0.5141160000000  0.4631240000000 1.0
C      1  0.4623100000000  0.4273370000000  0.5143160000000 1.0
C      1  0.5153720000000  0.4633730000000  0.4288820000000 1.0
C      1  0.4280910000000  0.4855540000000  0.5367630000000 1.0
C      1  0.5714660000000  0.4855580000000  0.4631220000000 1.0
C      1  0.5714660000000  0.5141200000000  0.5367610000000 1.0
C      1  0.4623090000000  0.5723410000000  0.4855670000000 1.0
C      1  0.5372510000000  0.5723410000000  0.5143160000000 1.0
C      1  0.5372510000000  0.4273370000000  0.4855670000000 1.0
C      1  0.5153720000000  0.5363050000000  0.5710010000000 1.0
C      1  0.4841890000000  0.5363050000000  0.4288820000000 1.0
C      1  0.4841880000000  0.4633730000000  0.5710000000000 1.0
C      1  0.4280910000000  0.4630170000000  0.5142260000000 1.0
C      1  0.4623090000000  0.5142140000000  0.4274400000000 1.0
C      1  0.5153720000000  0.4287790000000  0.4634750000000 1.0
C      1  0.4280990000000  0.5366560000000  0.4856650000000 1.0
C      1  0.5714660000000  0.4630190000000  0.4856600000000 1.0
C      1  0.5714660000000  0.5366590000000  0.5142230000000 1.0
C      1  0.4623100000000  0.4854640000000  0.5724430000000 1.0
C      1  0.5372510000000  0.5142140000000  0.5724440000000 1.0
C      1  0.5372510000000  0.4854640000000  0.4274400000000 1.0
C      1  0.5153720000000  0.5708980000000  0.5364070000000 1.0
C      1  0.4841880000000  0.4287800000000  0.5364070000000 1.0
C      1  0.4841890000000  0.5708990000000  0.4634760000000 1.0
C      1  0.5256250000000  0.5164060000000  0.4631570000000 1.0
C      1  0.4633620000000  0.5265200000000  0.5162130000000 1.0
C      1  0.5152940000000  0.4630120000000  0.5264120000000 1.0
C      1  0.5256250000000  0.4832720000000  0.5367250000000 1.0
C      1  0.4739360000000  0.4832730000000  0.4631580000000 1.0
C      1  0.4739360000000  0.5164060000000  0.5367260000000 1.0
C      1  0.4633630000000  0.4731570000000  0.4836690000000 1.0
C      1  0.5361990000000  0.4731580000000  0.5162130000000 1.0
C      1  0.5361990000000  0.5265200000000  0.4836700000000 1.0
C      1  0.5152950000000  0.5366660000000  0.4734710000000 1.0
C      1  0.4842660000000  0.5366650000000  0.5264120000000 1.0
C      1  0.4842670000000  0.4630120000000  0.4734710000000 1.0
C      1  0.5256250000000  0.4630550000000  0.5165080000000 1.0
C      1  0.4633630000000  0.5161110000000  0.5266230000000 1.0
C      1  0.5152950000000  0.5263100000000  0.4631150000000 1.0
C      1  0.5256250000000  0.5366230000000  0.4833750000000 1.0
C      1  0.4739360000000  0.4630540000000  0.4833740000000 1.0
C      1  0.4739360000000  0.5366220000000  0.5165080000000 1.0
C      1  0.4633620000000  0.4835680000000  0.4732610000000 1.0
C      1  0.5361990000000  0.5161100000000  0.4732600000000 1.0
C      1  0.5361990000000  0.4835670000000  0.5266230000000 1.0
C      1  0.5152940000000  0.4733680000000  0.5367680000000 1.0
C      1  0.4842670000000  0.5263100000000  0.5367690000000 1.0
C      1  0.4842660000000  0.4733680000000  0.4631150000000 1.0
C      1  0.5783350000000  0.5115160000000  0.4699010000000 1.0
C      1  0.4705110000000  0.5801370000000  0.5122040000000 1.0
C      1  0.5101880000000  0.4701140000000  0.5794070000000 1.0
C      1  0.5783350000000  0.4881620000000  0.5299820000000 1.0
C      1  0.4212160000000  0.4881490000000  0.4699180000000 1.0
C      1  0.4212360000000  0.5115020000000  0.5299980000000 1.0
C      1  0.4705140000000  0.4195380000000  0.4876780000000 1.0
C      1  0.5290480000000  0.4195400000000  0.5122040000000 1.0
C      1  0.5290480000000  0.5801380000000  0.4876790000000 1.0
C      1  0.5101880000000  0.5295650000000  0.4204760000000 1.0
C      1  0.4893730000000  0.5295650000000  0.5794080000000 1.0
C      1  0.4893710000000  0.4701140000000  0.4204770000000 1.0
C      1  0.5783350000000  0.4697990000000  0.5116180000000 1.0
C      1  0.4705140000000  0.5121020000000  0.5802420000000 1.0
C      1  0.5101880000000  0.5793040000000  0.4702160000000 1.0
C      1  0.5783350000000  0.5298790000000  0.4882650000000 1.0
C      1  0.4212360000000  0.4697820000000  0.4882780000000 1.0
C      1  0.4212160000000  0.5298620000000  0.5116320000000 1.0
C      1  0.4705110000000  0.4875770000000  0.4196440000000 1.0
C      1  0.5290480000000  0.5121010000000  0.4196430000000 1.0
C      1  0.5290480000000  0.4875760000000  0.5802410000000 1.0
C      1  0.5101880000000  0.4203740000000  0.5296670000000 1.0
C      1  0.4893710000000  0.5793030000000  0.5296670000000 1.0
C      1  0.4893730000000  0.4203730000000  0.4702160000000 1.0
C      1  0.4699850000000  0.4320810000000  0.5390360000000 1.0
C      1  0.5396140000000  0.4712230000000  0.4319100000000 1.0
C      1  0.4330900000000  0.5386680000000  0.4715950000000 1.0
C      1  0.4699850000000  0.5675980000000  0.4608460000000 1.0
C      1  0.5295750000000  0.5675970000000  0.5390360000000 1.0
C      1  0.5295760000000  0.4320800000000  0.4608460000000 1.0
C      1  0.5396150000000  0.5284550000000  0.5679730000000 1.0
C      1  0.4599450000000  0.5284550000000  0.4319090000000 1.0
C      1  0.4599460000000  0.4712240000000  0.5679720000000 1.0
C      1  0.4330870000000  0.4610040000000  0.5282930000000 1.0
C      1  0.5664720000000  0.4610060000000  0.4715920000000 1.0
C      1  0.5664720000000  0.5386710000000  0.5282910000000 1.0
C      1  0.4699850000000  0.5389340000000  0.4321830000000 1.0
C      1  0.5396150000000  0.4318070000000  0.4713260000000 1.0
C      1  0.4330870000000  0.4714880000000  0.5387770000000 1.0
C      1  0.4699850000000  0.4607450000000  0.5676990000000 1.0
C      1  0.5295760000000  0.5389340000000  0.5677000000000 1.0
C      1  0.5295750000000  0.4607440000000  0.4321830000000 1.0
C      1  0.5396140000000  0.5678700000000  0.5285570000000 1.0
C      1  0.4599460000000  0.4318090000000  0.5285560000000 1.0
C      1  0.4599450000000  0.5678710000000  0.4713250000000 1.0
C      1  0.4330900000000  0.5281860000000  0.4611120000000 1.0
C      1  0.5664720000000  0.4714900000000  0.4611090000000 1.0
C      1  0.5664720000000  0.5281880000000  0.5387740000000 1.0
C      1  0.4832250000000  0.4617540000000  0.5486010000000 1.0
C      1  0.5506570000000  0.4883890000000  0.4578970000000 1.0
C      1  0.4609420000000  0.5506260000000  0.4870350000000 1.0
C      1  0.4832260000000  0.5379240000000  0.4512810000000 1.0
C      1  0.5163350000000  0.5379240000000  0.5486020000000 1.0
C      1  0.5163350000000  0.4617530000000  0.4512810000000 1.0
C      1  0.5506570000000  0.5112890000000  0.5419870000000 1.0
C      1  0.4489060000000  0.5112900000000  0.4578950000000 1.0
C      1  0.4489010000000  0.4883910000000  0.5419850000000 1.0
C      1  0.4609360000000  0.4490520000000  0.5128430000000 1.0
C      1  0.5386210000000  0.4490520000000  0.4870380000000 1.0
C      1  0.5386210000000  0.5506260000000  0.5128460000000 1.0
C      1  0.4832260000000  0.5484990000000  0.4618560000000 1.0
C      1  0.5506570000000  0.4577940000000  0.4884920000000 1.0
C      1  0.4609360000000  0.4869380000000  0.5507280000000 1.0
C      1  0.4832250000000  0.4511790000000  0.5380260000000 1.0
C      1  0.5163350000000  0.5484990000000  0.5380270000000 1.0
C      1  0.5163350000000  0.4511790000000  0.4618560000000 1.0
C      1  0.5506570000000  0.5418840000000  0.5113910000000 1.0
C      1  0.4489010000000  0.4577960000000  0.5113890000000 1.0
C      1  0.4489060000000  0.5418850000000  0.4884900000000 1.0
C      1  0.4609420000000  0.5127450000000  0.4491540000000 1.0
C      1  0.5386210000000  0.4869350000000  0.4491540000000 1.0
C      1  0.5386210000000  0.5127430000000  0.5507290000000 1.0
C      1  0.5001580000000  0.5117070000000  0.5227020000000 1.0
C      1  0.5187020000000  0.4997560000000  0.5108010000000 1.0
C      1  0.5104190000000  0.5226670000000  0.4996900000000 1.0
C      1  0.5001580000000  0.4879700000000  0.4771820000000 1.0
C      1  0.4994020000000  0.4879710000000  0.5227020000000 1.0
C      1  0.4994030000000  0.5117070000000  0.4771820000000 1.0
C      1  0.5187020000000  0.4999220000000  0.4890820000000 1.0
C      1  0.4808600000000  0.4999220000000  0.5108010000000 1.0
C      1  0.4808590000000  0.4997560000000  0.4890820000000 1.0
C      1  0.5104190000000  0.4770100000000  0.5001940000000 1.0
C      1  0.4891420000000  0.4770100000000  0.4996890000000 1.0
C      1  0.4891420000000  0.5226670000000  0.5001930000000 1.0
C      1  0.5001580000000  0.5225990000000  0.5118100000000 1.0
C      1  0.5187020000000  0.5106980000000  0.4998590000000 1.0
C      1  0.5104190000000  0.4995870000000  0.5227700000000 1.0
C      1  0.5001580000000  0.4770790000000  0.4880730000000 1.0
C      1  0.4994030000000  0.5225990000000  0.4880730000000 1.0
C      1  0.4994020000000  0.4770790000000  0.5118100000000 1.0
C      1  0.5187020000000  0.4889790000000  0.5000250000000 1.0
C      1  0.4808590000000  0.5106990000000  0.5000240000000 1.0
C      1  0.4808600000000  0.4889800000000  0.4998580000000 1.0
C      1  0.5104190000000  0.5000910000000  0.4771130000000 1.0
C      1  0.4891420000000  0.4995870000000  0.4771130000000 1.0
C      1  0.4891420000000  0.5000910000000  0.5227700000000 1.0
C      1  0.4781830000000  0.4272450000000  0.4665740000000 1.0
C      1  0.4672430000000  0.4764870000000  0.4267960000000 1.0
C      1  0.4278430000000  0.4663800000000  0.4767640000000 1.0
C      1  0.4781810000000  0.5724300000000  0.5333080000000 1.0
C      1  0.5213780000000  0.5724310000000  0.4665750000000 1.0
C      1  0.5213780000000  0.4272470000000  0.5333080000000 1.0
C      1  0.4672450000000  0.5231920000000  0.5730910000000 1.0
C      1  0.5323170000000  0.5231910000000  0.4267940000000 1.0
C      1  0.5323170000000  0.4764860000000  0.5730890000000 1.0
C      1  0.4278400000000  0.5332800000000  0.5231300000000 1.0
C      1  0.5717190000000  0.5332890000000  0.4767580000000 1.0
C      1  0.5717190000000  0.4663890000000  0.5231240000000 1.0
C      1  0.4781810000000  0.4664730000000  0.4273510000000 1.0
C      1  0.4672450000000  0.4266890000000  0.4765880000000 1.0
C      1  0.4278400000000  0.4766500000000  0.4665000000000 1.0
C      1  0.4781830000000  0.5332070000000  0.5725360000000 1.0
C      1  0.5213780000000  0.4664720000000  0.5725340000000 1.0
C      1  0.5213780000000  0.5332060000000  0.4273490000000 1.0
C      1  0.4672430000000  0.5729850000000  0.5232930000000 1.0
C      1  0.5323170000000  0.4266910000000  0.5232940000000 1.0
C      1  0.5323170000000  0.5729870000000  0.4765890000000 1.0
C      1  0.4278430000000  0.5230160000000  0.5334010000000 1.0
C      1  0.5717190000000  0.4766560000000  0.5333920000000 1.0
C      1  0.5717190000000  0.5230220000000  0.4664910000000 1.0
C      1  0.5615810000000  0.5224250000000  0.4565080000000 1.0
C      1  0.4574700000000  0.5626270000000  0.5221430000000 1.0
C      1  0.5197660000000  0.4572950000000  0.5617080000000 1.0
C      1  0.5615810000000  0.4772530000000  0.5433750000000 1.0
C      1  0.4379780000000  0.4772530000000  0.4565160000000 1.0
C      1  0.4379810000000  0.5224250000000  0.5433820000000 1.0
C      1  0.4574720000000  0.4370450000000  0.4777380000000 1.0
C      1  0.5420890000000  0.4370480000000  0.5221440000000 1.0
C      1  0.5420890000000  0.5626300000000  0.4777390000000 1.0
C      1  0.5197670000000  0.5423840000000  0.4381750000000 1.0
C      1  0.4797940000000  0.5423840000000  0.5617090000000 1.0
C      1  0.4797930000000  0.4572950000000  0.4381760000000 1.0
C      1  0.5615810000000  0.4564060000000  0.5225280000000 1.0
C      1  0.4574720000000  0.5220420000000  0.5627350000000 1.0
C      1  0.5197670000000  0.5616060000000  0.4573970000000 1.0
C      1  0.5615810000000  0.5432720000000  0.4773560000000 1.0
C      1  0.4379810000000  0.4563980000000  0.4773560000000 1.0
C      1  0.4379780000000  0.5432650000000  0.5225280000000 1.0
C      1  0.4574700000000  0.4776370000000  0.4371540000000 1.0
C      1  0.5420890000000  0.5220410000000  0.4371510000000 1.0
C      1  0.5420890000000  0.4776360000000  0.5627320000000 1.0
C      1  0.5197660000000  0.4380730000000  0.5424860000000 1.0
C      1  0.4797930000000  0.5616040000000  0.5424850000000 1.0
C      1  0.4797940000000  0.4380710000000  0.4573960000000 1.0
C      1  0.4370550000000  0.4966670000000  0.5430080000000 1.0
C      1  0.5414440000000  0.4373510000000  0.4958720000000 1.0
C      1  0.4930440000000  0.5406940000000  0.4397990000000 1.0
C      1  0.4370620000000  0.5030220000000  0.4568610000000 1.0
C      1  0.5625020000000  0.5030170000000  0.5430160000000 1.0
C      1  0.5625020000000  0.4966610000000  0.4568680000000 1.0
C      1  0.5414440000000  0.5623260000000  0.5040110000000 1.0
C      1  0.4581170000000  0.5623250000000  0.4958720000000 1.0
C      1  0.4581160000000  0.4373500000000  0.5040110000000 1.0
C      1  0.4930430000000  0.4589840000000  0.5600830000000 1.0
C      1  0.5065170000000  0.4589840000000  0.4398000000000 1.0
C      1  0.5065170000000  0.5406940000000  0.5600840000000 1.0
C      1  0.4370620000000  0.5429200000000  0.4967580000000 1.0
C      1  0.5414440000000  0.4957690000000  0.4374540000000 1.0
C      1  0.4930430000000  0.4396970000000  0.5407960000000 1.0
C      1  0.4370550000000  0.4567730000000  0.5031130000000 1.0
C      1  0.5625020000000  0.5429130000000  0.5031190000000 1.0
C      1  0.5625020000000  0.4567650000000  0.4967640000000 1.0
C      1  0.5414440000000  0.5039090000000  0.5624290000000 1.0
C      1  0.4581160000000  0.4957690000000  0.5624300000000 1.0
C      1  0.4581180000000  0.5039090000000  0.4374560000000 1.0
C      1  0.4930440000000  0.5599810000000  0.4590860000000 1.0
C      1  0.5065170000000  0.4396960000000  0.4590860000000 1.0
C      1  0.5065170000000  0.5599810000000  0.5407960000000 1.0
C      1  0.5239970000000  0.4242350000000  0.4863850000000 1.0
C      1  0.4854250000000  0.5233400000000  0.4246380000000 1.0
C      1  0.4247210000000  0.4862610000000  0.5235650000000 1.0
C      1  0.5239960000000  0.5754430000000  0.5134980000000 1.0
C      1  0.4755630000000  0.5754430000000  0.4863850000000 1.0
C      1  0.4755640000000  0.4242350000000  0.5134980000000 1.0
C      1  0.4854250000000  0.4763380000000  0.5752450000000 1.0
C      1  0.5141350000000  0.4763380000000  0.4246370000000 1.0
C      1  0.5141360000000  0.5233410000000  0.5752460000000 1.0
C      1  0.4247280000000  0.5134090000000  0.4763250000000 1.0
C      1  0.5748370000000  0.5134130000000  0.5235620000000 1.0
C      1  0.5748370000000  0.4862650000000  0.4763210000000 1.0
C      1  0.5239960000000  0.4862830000000  0.4243370000000 1.0
C      1  0.4854250000000  0.4245350000000  0.5234430000000 1.0
C      1  0.4247280000000  0.5234560000000  0.4863710000000 1.0
C      1  0.5239970000000  0.5133950000000  0.5755460000000 1.0
C      1  0.4755640000000  0.4862830000000  0.5755460000000 1.0
C      1  0.4755630000000  0.5133950000000  0.4243380000000 1.0
C      1  0.4854250000000  0.5751430000000  0.4764400000000 1.0
C      1  0.5141360000000  0.4245350000000  0.4764400000000 1.0
C      1  0.5141350000000  0.5751430000000  0.5234430000000 1.0
C      1  0.4247210000000  0.4762160000000  0.5135190000000 1.0
C      1  0.5748370000000  0.5234590000000  0.5135160000000 1.0
C      1  0.5748370000000  0.4762190000000  0.4863670000000 1.0
C      1  0.4565560000000  0.5027020000000  0.5219570000000 1.0
C      1  0.5215570000000  0.4545450000000  0.5049050000000 1.0
C      1  0.5035380000000  0.5216280000000  0.4547700000000 1.0
C      1  0.4565520000000  0.4969760000000  0.4779280000000 1.0
C      1  0.5430070000000  0.4969760000000  0.5219560000000 1.0
C      1  0.5430070000000  0.5027010000000  0.4779270000000 1.0
C      1  0.5215560000000  0.5451330000000  0.4949780000000 1.0
C      1  0.4780050000000  0.5451320000000  0.5049050000000 1.0
C      1  0.4780040000000  0.4545440000000  0.4949780000000 1.0
C      1  0.5035380000000  0.4780500000000  0.5451130000000 1.0
C      1  0.4960230000000  0.4780500000000  0.4547700000000 1.0
C      1  0.4960230000000  0.5216280000000  0.5451130000000 1.0
C      1  0.4565520000000  0.5218520000000  0.5028040000000 1.0
C      1  0.5215560000000  0.5048020000000  0.4546470000000 1.0
C      1  0.5035380000000  0.4546680000000  0.5217300000000 1.0
C      1  0.4565560000000  0.4778240000000  0.4970790000000 1.0
C      1  0.5430070000000  0.5218530000000  0.4970790000000 1.0
C      1  0.5430070000000  0.4778240000000  0.5028040000000 1.0
C      1  0.5215570000000  0.4948750000000  0.5452360000000 1.0
C      1  0.4780040000000  0.5048030000000  0.5452360000000 1.0
C      1  0.4780050000000  0.4948760000000  0.4546480000000 1.0
C      1  0.5035380000000  0.5450100000000  0.4781520000000 1.0
C      1  0.4960230000000  0.4546670000000  0.4781530000000 1.0
C      1  0.4960230000000  0.5450100000000  0.5217300000000 1.0
C      1  0.5447090000000  0.4730510000000  0.4449460000000 1.0
C      1  0.4444420000000  0.5460970000000  0.4742180000000 1.0
C      1  0.4710200000000  0.4444910000000  0.5457840000000 1.0
C      1  0.5447090000000  0.5266260000000  0.5549370000000 1.0
C      1  0.4548530000000  0.5266280000000  0.4449460000000 1.0
C      1  0.4548510000000  0.4730530000000  0.5549370000000 1.0
C      1  0.4444390000000  0.4535790000000  0.5256610000000 1.0
C      1  0.5551200000000  0.4535800000000  0.4742200000000 1.0
C      1  0.5551200000000  0.5460980000000  0.5256630000000 1.0
C      1  0.4710220000000  0.5551880000000  0.4540990000000 1.0
C      1  0.5285390000000  0.5551880000000  0.5457840000000 1.0
C      1  0.5285390000000  0.4444900000000  0.4540990000000 1.0
C      1  0.5447090000000  0.4448430000000  0.4731540000000 1.0
C      1  0.4444390000000  0.4741200000000  0.5462010000000 1.0
C      1  0.4710220000000  0.5456820000000  0.4445930000000 1.0
C      1  0.5447090000000  0.5548350000000  0.5267290000000 1.0
C      1  0.4548510000000  0.4448440000000  0.5267270000000 1.0
C      1  0.4548530000000  0.5548350000000  0.4731520000000 1.0
C      1  0.4444420000000  0.5255620000000  0.4536830000000 1.0
C      1  0.5551200000000  0.4741170000000  0.4536820000000 1.0
C      1  0.5551200000000  0.5255600000000  0.5462010000000 1.0
C      1  0.4710210000000  0.4539970000000  0.5552890000000 1.0
C      1  0.5285390000000  0.5456820000000  0.5552900000000 1.0
C      1  0.5285390000000  0.4539960000000  0.4445930000000 1.0
C      1  0.4302090000000  0.4853760000000  0.5030520000000 1.0
C      1  0.5033960000000  0.4289430000000  0.4857890000000 1.0
C      1  0.4849930000000  0.5026980000000  0.4288350000000 1.0
C      1  0.4301930000000  0.5142920000000  0.4968450000000 1.0
C      1  0.5693610000000  0.5142970000000  0.5030450000000 1.0
C      1  0.5693610000000  0.4853810000000  0.4968380000000 1.0
C      1  0.5033950000000  0.5707350000000  0.5140940000000 1.0
C      1  0.4961650000000  0.5707350000000  0.4857890000000 1.0
C      1  0.4961660000000  0.4289430000000  0.5140940000000 1.0
C      1  0.4849940000000  0.4969800000000  0.5710490000000 1.0
C      1  0.5145670000000  0.4969800000000  0.4288340000000 1.0
C      1  0.5145670000000  0.5026980000000  0.5710490000000 1.0
C      1  0.4301930000000  0.5029350000000  0.4854890000000 1.0
C      1  0.5033950000000  0.4856860000000  0.4290450000000 1.0
C      1  0.4849940000000  0.4287310000000  0.5028000000000 1.0
C      1  0.4302090000000  0.4967280000000  0.5144040000000 1.0
C      1  0.5693610000000  0.5029420000000  0.5143990000000 1.0
C      1  0.5693610000000  0.4967350000000  0.4854840000000 1.0
C      1  0.5033960000000  0.5139920000000  0.5708370000000 1.0
C      1  0.4961660000000  0.4856860000000  0.5708380000000 1.0
C      1  0.4961650000000  0.5139920000000  0.4290460000000 1.0
C      1  0.4849930000000  0.5709460000000  0.4970820000000 1.0
C      1  0.5145670000000  0.4287320000000  0.4970820000000 1.0
C      1  0.5145670000000  0.5709460000000  0.5028010000000 1.0
C      1  0.4945160000000  0.4846460000000  0.4419810000000 1.0
C      1  0.4431870000000  0.4942160000000  0.4845250000000 1.0
C      1  0.4843530000000  0.4416880000000  0.4939100000000 1.0
C      1  0.4945160000000  0.5150320000000  0.5579030000000 1.0
C      1  0.5050440000000  0.5150320000000  0.4419810000000 1.0
C      1  0.5050440000000  0.4846460000000  0.5579020000000 1.0
C      1  0.4431910000000  0.5054590000000  0.5153640000000 1.0
C      1  0.5563730000000  0.5054600000000  0.4845220000000 1.0
C      1  0.5563730000000  0.4942180000000  0.5153610000000 1.0
C      1  0.4843530000000  0.5579890000000  0.5059730000000 1.0
C      1  0.5152070000000  0.5579900000000  0.4939100000000 1.0
C      1  0.5152080000000  0.4416880000000  0.5059730000000 1.0
C      1  0.4945160000000  0.4418780000000  0.4847490000000 1.0
C      1  0.4431910000000  0.4844160000000  0.4943220000000 1.0
C      1  0.4843530000000  0.4938070000000  0.4417910000000 1.0
C      1  0.4945160000000  0.5578000000000  0.5151340000000 1.0
C      1  0.5050440000000  0.4418780000000  0.5151340000000 1.0
C      1  0.5050440000000  0.5578000000000  0.4847490000000 1.0
C      1  0.4431870000000  0.5152550000000  0.5055640000000 1.0
C      1  0.5563730000000  0.4844190000000  0.5055630000000 1.0
C      1  0.5563730000000  0.5152580000000  0.4943200000000 1.0
C      1  0.4843530000000  0.5058710000000  0.5580930000000 1.0
C      1  0.5152080000000  0.4938070000000  0.5580920000000 1.0
C      1  0.5152070000000  0.5058700000000  0.4417910000000 1.0
C      1  0.5462020000000  0.4779700000000  0.4780730000000 1.0
C      1  0.4533560000000  0.5217060000000  0.4780740000000 1.0
C      1  0.4533620000000  0.4779700000000  0.5218110000000 1.0
C      1  0.5462020000000  0.5217070000000  0.5218100000000 1.0
END
