TITL C-1892078-2854-2 3.2653964746885e-07 1000000 -3675.91089986086 0 0 520 (C2) n - 1
REM
REM in /nfs/bkarasulu/CARBON/AIRSS/Generating-Clusters/GAP-ML-2020/Higher-Symm/Selected-Sizes/TryA-Only_Ih-Symm/Larger-Clusters
REM
REM
REM
REM
REM
REM ./C.cell (2cf5181f0f1d4d5b12b972d32ad12063)
REM
REM compiler GCC version 9.2.1 20190827 (Red Hat 9.2.1-1)
REM options -cpp -mtune=generic -march=x86-64 -g -O0 -fpre-include=/usr/include/finclude/math-vector-fortran.h
REM seed -1239316468 1489395581 -1255395276 129254631 1581699365 -1088321264 -771542016 1583162732 -117585646 -1678169179 1588946866 -701572200 -213780518 -2046802532 -1106797807 -919770829 483270171 911687431 -2031481495 -1817673216 340408322 978376575 1920511764 -871270200 -1785590274 -989193044 -1746037809 -1741733408 340601368 -451630503 -1693933629 239951468 -595956643
REM
CELL 1.54180  100.00000  100.00000  100.00000   90.00000   90.00000   90.00000
LATT -1
SFAC C  
C      1  0.5193140000000  0.5500540000000  0.4596310000000 1.0
C      1  0.5534460000000  0.4558120000000  0.5186780000000 1.0
C      1  0.4566390000000  0.5189250000000  0.5527650000000 1.0
C      1  0.4802260000000  0.5504100000000  0.5408310000000 1.0
C      1  0.4802270000000  0.4489810000000  0.4590050000000 1.0
C      1  0.5193140000000  0.4493380000000  0.5402050000000 1.0
C      1  0.4456660000000  0.4551900000000  0.4810700000000 1.0
C      1  0.4456660000000  0.5442010000000  0.5187650000000 1.0
C      1  0.5534460000000  0.5435790000000  0.4811580000000 1.0
C      1  0.5393570000000  0.5190440000000  0.4505690000000 1.0
C      1  0.5393570000000  0.4803480000000  0.5492680000000 1.0
C      1  0.4566400000000  0.4804660000000  0.4470710000000 1.0
C      1  0.4590290000000  0.5505280000000  0.5196360000000 1.0
C      1  0.5184990000000  0.4557190000000  0.5535570000000 1.0
C      1  0.5525770000000  0.5185960000000  0.4567890000000 1.0
C      1  0.5401590000000  0.5498650000000  0.4806250000000 1.0
C      1  0.4590300000000  0.4488630000000  0.4801990000000 1.0
C      1  0.5401590000000  0.4495270000000  0.5192110000000 1.0
C      1  0.4808480000000  0.4551580000000  0.4456170000000 1.0
C      1  0.5184980000000  0.5436720000000  0.4462790000000 1.0
C      1  0.4808470000000  0.5442330000000  0.5542190000000 1.0
C      1  0.4503050000000  0.5194580000000  0.5396400000000 1.0
C      1  0.5525770000000  0.4807960000000  0.5430480000000 1.0
C      1  0.4503060000000  0.4799330000000  0.4601950000000 1.0
C      1  0.4813330000000  0.4452890000000  0.4924930000000 1.0
C      1  0.4464160000000  0.4930310000000  0.4817680000000 1.0
C      1  0.4927230000000  0.4804080000000  0.4471100000000 1.0
C      1  0.5182670000000  0.4452150000000  0.5066410000000 1.0
C      1  0.5182660000000  0.5541770000000  0.4931950000000 1.0
C      1  0.4813320000000  0.5541030000000  0.5073430000000 1.0
C      1  0.5515890000000  0.4929730000000  0.5182400000000 1.0
C      1  0.5515890000000  0.5064190000000  0.4815970000000 1.0
C      1  0.4464160000000  0.5063590000000  0.5180670000000 1.0
C      1  0.5072710000000  0.4813270000000  0.5524320000000 1.0
C      1  0.5072710000000  0.5180640000000  0.4474040000000 1.0
C      1  0.4927220000000  0.5189840000000  0.5527260000000 1.0
C      1  0.4927510000000  0.4450380000000  0.4810600000000 1.0
C      1  0.4816460000000  0.4924780000000  0.4479920000000 1.0
C      1  0.4468540000000  0.4808730000000  0.4922840000000 1.0
C      1  0.5069310000000  0.4454740000000  0.5180470000000 1.0
C      1  0.4927500000000  0.5543530000000  0.5187760000000 1.0
C      1  0.5069300000000  0.5539180000000  0.4817890000000 1.0
C      1  0.5179940000000  0.4935290000000  0.5532640000000 1.0
C      1  0.4816450000000  0.5069140000000  0.5518440000000 1.0
C      1  0.5179940000000  0.5058620000000  0.4465720000000 1.0
C      1  0.5518200000000  0.4810300000000  0.5067870000000 1.0
C      1  0.4468530000000  0.5185180000000  0.5075520000000 1.0
C      1  0.5518200000000  0.5183620000000  0.4930490000000 1.0
C      1  0.5475840000000  0.5698220000000  0.5092830000000 1.0
C      1  0.5684180000000  0.5085700000000  0.5473880000000 1.0
C      1  0.5086420000000  0.5479820000000  0.5694900000000 1.0
C      1  0.4524060000000  0.5693820000000  0.4908900000000 1.0
C      1  0.4524070000000  0.4300090000000  0.5089450000000 1.0
C      1  0.5475850000000  0.4295700000000  0.4905530000000 1.0
C      1  0.4307950000000  0.5089820000000  0.4530070000000 1.0
C      1  0.4307950000000  0.4904080000000  0.5468280000000 1.0
C      1  0.5684180000000  0.4908230000000  0.4524480000000 1.0
C      1  0.4911360000000  0.5470190000000  0.4314930000000 1.0
C      1  0.4911360000000  0.4523720000000  0.5683430000000 1.0
C      1  0.5086430000000  0.4514100000000  0.4303460000000 1.0
C      1  0.5091140000000  0.5701670000000  0.5479600000000 1.0
C      1  0.5470310000000  0.5091550000000  0.5694290000000 1.0
C      1  0.5688170000000  0.5474280000000  0.5088390000000 1.0
C      1  0.4906910000000  0.5691240000000  0.4527220000000 1.0
C      1  0.5091150000000  0.4292240000000  0.4518760000000 1.0
C      1  0.4906910000000  0.4302670000000  0.5471140000000 1.0
C      1  0.4527000000000  0.5083850000000  0.4317440000000 1.0
C      1  0.5470320000000  0.4902370000000  0.4304070000000 1.0
C      1  0.4527000000000  0.4910060000000  0.5680910000000 1.0
C      1  0.4310210000000  0.5474510000000  0.4914340000000 1.0
C      1  0.5688180000000  0.4519640000000  0.4909980000000 1.0
C      1  0.4310220000000  0.4519400000000  0.5084010000000 1.0
C      1  0.5747090000000  0.4652760000000  0.4899390000000 1.0
C      1  0.4657660000000  0.4898580000000  0.5742440000000 1.0
C      1  0.4896630000000  0.5755340000000  0.4657200000000 1.0
C      1  0.4248250000000  0.4651200000000  0.5095920000000 1.0
C      1  0.4248240000000  0.5342710000000  0.4902440000000 1.0
C      1  0.5747090000000  0.5341160000000  0.5098980000000 1.0
C      1  0.5338960000000  0.4891620000000  0.4242230000000 1.0
C      1  0.5338960000000  0.5102300000000  0.5756140000000 1.0
C      1  0.4657660000000  0.5095330000000  0.4255920000000 1.0
C      1  0.5100260000000  0.5763760000000  0.5347610000000 1.0
C      1  0.5100270000000  0.4230150000000  0.4650750000000 1.0
C      1  0.4896640000000  0.4238570000000  0.5341160000000 1.0
C      1  0.4898610000000  0.4656370000000  0.5743990000000 1.0
C      1  0.5745200000000  0.4896780000000  0.4656560000000 1.0
C      1  0.4654530000000  0.5756790000000  0.4898990000000 1.0
C      1  0.5095680000000  0.4646740000000  0.4243370000000 1.0
C      1  0.4898610000000  0.5337550000000  0.4254370000000 1.0
C      1  0.5095670000000  0.5347170000000  0.5754990000000 1.0
C      1  0.4245590000000  0.4893290000000  0.5338280000000 1.0
C      1  0.5745190000000  0.5097140000000  0.5341810000000 1.0
C      1  0.4245590000000  0.5100620000000  0.4660070000000 1.0
C      1  0.5344630000000  0.5761920000000  0.5102610000000 1.0
C      1  0.4654540000000  0.4237120000000  0.5099370000000 1.0
C      1  0.5344640000000  0.4232000000000  0.4895750000000 1.0
C      1  0.5432010000000  0.5552160000000  0.5042460000000 1.0
C      1  0.5537480000000  0.5040720000000  0.5432090000000 1.0
C      1  0.5038220000000  0.5440190000000  0.5548840000000 1.0
C      1  0.4567240000000  0.5547620000000  0.4961730000000 1.0
C      1  0.4567250000000  0.4446290000000  0.5036620000000 1.0
C      1  0.5432020000000  0.4441760000000  0.4955900000000 1.0
C      1  0.4454950000000  0.5038020000000  0.4573550000000 1.0
C      1  0.4454950000000  0.4955880000000  0.5424810000000 1.0
C      1  0.5537480000000  0.4953200000000  0.4566280000000 1.0
C      1  0.4960660000000  0.5429400000000  0.4461070000000 1.0
C      1  0.4960660000000  0.4564520000000  0.5537290000000 1.0
C      1  0.5038230000000  0.4553720000000  0.4449520000000 1.0
C      1  0.5039420000000  0.5555660000000  0.5437880000000 1.0
C      1  0.5427250000000  0.5042300000000  0.5546760000000 1.0
C      1  0.5541370000000  0.5435230000000  0.5041370000000 1.0
C      1  0.4958780000000  0.5545020000000  0.4571760000000 1.0
C      1  0.5039430000000  0.4438250000000  0.4560480000000 1.0
C      1  0.4958790000000  0.4448890000000  0.5426590000000 1.0
C      1  0.4569400000000  0.5036330000000  0.4463800000000 1.0
C      1  0.5427260000000  0.4951620000000  0.4451610000000 1.0
C      1  0.4569400000000  0.4957580000000  0.5534560000000 1.0
C      1  0.4455830000000  0.5432780000000  0.4963970000000 1.0
C      1  0.5541380000000  0.4558680000000  0.4956990000000 1.0
C      1  0.4455840000000  0.4561130000000  0.5034380000000 1.0
C      1  0.5497950000000  0.4396250000000  0.5400370000000 1.0
C      1  0.4398540000000  0.5401830000000  0.5496020000000 1.0
C      1  0.5398940000000  0.5504850000000  0.4393570000000 1.0
C      1  0.4493870000000  0.4390680000000  0.4596120000000 1.0
C      1  0.4493860000000  0.5603230000000  0.5402240000000 1.0
C      1  0.5497940000000  0.5597670000000  0.4597990000000 1.0
C      1  0.5598600000000  0.5401310000000  0.4495120000000 1.0
C      1  0.5598600000000  0.4592610000000  0.5503250000000 1.0
C      1  0.4398550000000  0.4592070000000  0.4502340000000 1.0
C      1  0.4590200000000  0.5507030000000  0.5607170000000 1.0
C      1  0.4590210000000  0.4486880000000  0.4391190000000 1.0
C      1  0.5398950000000  0.4489070000000  0.5604790000000 1.0
C      1  0.5398350000000  0.4393870000000  0.5500850000000 1.0
C      1  0.5492590000000  0.5398870000000  0.4401760000000 1.0
C      1  0.4389730000000  0.5508120000000  0.5402770000000 1.0
C      1  0.4593750000000  0.4392050000000  0.4495970000000 1.0
C      1  0.5398340000000  0.5600050000000  0.4497510000000 1.0
C      1  0.4593740000000  0.5601860000000  0.5502380000000 1.0
C      1  0.4492630000000  0.5404190000000  0.5601240000000 1.0
C      1  0.5492590000000  0.4595050000000  0.5596600000000 1.0
C      1  0.4492640000000  0.4589720000000  0.4397120000000 1.0
C      1  0.5602790000000  0.5503110000000  0.4594090000000 1.0
C      1  0.4389740000000  0.4485790000000  0.4595590000000 1.0
C      1  0.5602800000000  0.4490810000000  0.5404280000000 1.0
C      1  0.5376020000000  0.5020460000000  0.4811050000000 1.0
C      1  0.5052780000000  0.4829180000000  0.5372530000000 1.0
C      1  0.4821150000000  0.5389670000000  0.5067590000000 1.0
C      1  0.4611770000000  0.5043710000000  0.5167760000000 1.0
C      1  0.4611770000000  0.4950200000000  0.4830590000000 1.0
C      1  0.5376020000000  0.4973450000000  0.5187310000000 1.0
C      1  0.4966740000000  0.4780220000000  0.4607890000000 1.0
C      1  0.4966740000000  0.5213690000000  0.5390470000000 1.0
C      1  0.5052780000000  0.5164740000000  0.4625830000000 1.0
C      1  0.5173960000000  0.5391420000000  0.4941220000000 1.0
C      1  0.5173970000000  0.4602490000000  0.5057140000000 1.0
C      1  0.4821160000000  0.4604240000000  0.4930770000000 1.0
C      1  0.4815620000000  0.5029180000000  0.5375940000000 1.0
C      1  0.5379800000000  0.4793640000000  0.5025840000000 1.0
C      1  0.5061900000000  0.5387900000000  0.4826540000000 1.0
C      1  0.5170460000000  0.5036220000000  0.4612220000000 1.0
C      1  0.4815620000000  0.4964730000000  0.4622420000000 1.0
C      1  0.5170460000000  0.4957700000000  0.5386140000000 1.0
C      1  0.4621240000000  0.4826810000000  0.4940330000000 1.0
C      1  0.5379800000000  0.5200280000000  0.4972520000000 1.0
C      1  0.4621230000000  0.5167110000000  0.5058020000000 1.0
C      1  0.4935190000000  0.5392940000000  0.5180040000000 1.0
C      1  0.5061910000000  0.4606020000000  0.5171820000000 1.0
C      1  0.4935200000000  0.4600980000000  0.4818320000000 1.0
C      1  0.4553860000000  0.4365480000000  0.4719580000000 1.0
C      1  0.4378920000000  0.4715940000000  0.4564790000000 1.0
C      1  0.4716990000000  0.4535860000000  0.4354040000000 1.0
C      1  0.5438750000000  0.4372720000000  0.5276140000000 1.0
C      1  0.5438740000000  0.5621200000000  0.4722220000000 1.0
C      1  0.4553850000000  0.5628430000000  0.5278780000000 1.0
C      1  0.5630340000000  0.4719500000000  0.5451210000000 1.0
C      1  0.5630340000000  0.5274420000000  0.4547150000000 1.0
C      1  0.4378920000000  0.5277970000000  0.5433560000000 1.0
C      1  0.5271500000000  0.4536350000000  0.5641620000000 1.0
C      1  0.5271500000000  0.5457570000000  0.4356740000000 1.0
C      1  0.4716980000000  0.5458050000000  0.5644320000000 1.0
C      1  0.4717980000000  0.4367860000000  0.4554930000000 1.0
C      1  0.4545620000000  0.4716370000000  0.4366090000000 1.0
C      1  0.4351720000000  0.4532670000000  0.4722840000000 1.0
C      1  0.5274800000000  0.4369210000000  0.5440870000000 1.0
C      1  0.4717970000000  0.5626050000000  0.5443430000000 1.0
C      1  0.5274790000000  0.5624710000000  0.4557490000000 1.0
C      1  0.5430030000000  0.4718850000000  0.5616040000000 1.0
C      1  0.4545620000000  0.5277540000000  0.5632270000000 1.0
C      1  0.5430020000000  0.5275070000000  0.4382320000000 1.0
C      1  0.5637530000000  0.4541310000000  0.5277360000000 1.0
C      1  0.4351710000000  0.5461240000000  0.5275510000000 1.0
C      1  0.5637520000000  0.5452610000000  0.4721000000000 1.0
C      1  0.4657510000000  0.4412400000000  0.4915960000000 1.0
C      1  0.4423670000000  0.4915950000000  0.4663940000000 1.0
C      1  0.4913040000000  0.4644600000000  0.4415490000000 1.0
C      1  0.5339450000000  0.4413700000000  0.5076900000000 1.0
C      1  0.5339440000000  0.5580210000000  0.4921460000000 1.0
C      1  0.4657500000000  0.5581510000000  0.5082400000000 1.0
C      1  0.5568120000000  0.4915030000000  0.5340040000000 1.0
C      1  0.5568120000000  0.5078890000000  0.4658330000000 1.0
C      1  0.4423660000000  0.5077960000000  0.5334410000000 1.0
C      1  0.5082510000000  0.4655290000000  0.5573220000000 1.0
C      1  0.5082510000000  0.5338620000000  0.4425140000000 1.0
C      1  0.4913040000000  0.5349310000000  0.5582870000000 1.0
C      1  0.4918170000000  0.4410340000000  0.4653150000000 1.0
C      1  0.4658880000000  0.4910690000000  0.4429770000000 1.0
C      1  0.4419740000000  0.4651100000000  0.4912430000000 1.0
C      1  0.5079320000000  0.4415520000000  0.5336030000000 1.0
C      1  0.4918160000000  0.5583570000000  0.5345210000000 1.0
C      1  0.5079310000000  0.5578400000000  0.4662330000000 1.0
C      1  0.5334060000000  0.4920540000000  0.5573960000000 1.0
C      1  0.4658870000000  0.5083220000000  0.5568580000000 1.0
C      1  0.5334060000000  0.5073380000000  0.4424400000000 1.0
C      1  0.5574210000000  0.4651250000000  0.5081870000000 1.0
C      1  0.4419730000000  0.5342810000000  0.5085930000000 1.0
C      1  0.5574210000000  0.5342660000000  0.4916490000000 1.0
C      1  0.4799520000000  0.5649020000000  0.4451570000000 1.0
C      1  0.5650880000000  0.4442270000000  0.4800370000000 1.0
C      1  0.4451120000000  0.4799870000000  0.5644100000000 1.0
C      1  0.5199100000000  0.5658700000000  0.5555380000000 1.0
C      1  0.5199110000000  0.4335210000000  0.4442980000000 1.0
C      1  0.4799530000000  0.4344890000000  0.5546790000000 1.0
C      1  0.4349080000000  0.4444560000000  0.5194270000000 1.0
C      1  0.4349070000000  0.5549350000000  0.4804080000000 1.0
C      1  0.5650870000000  0.5551650000000  0.5198000000000 1.0
C      1  0.5548300000000  0.4794820000000  0.4343960000000 1.0
C      1  0.5548290000000  0.5199100000000  0.5654400000000 1.0
C      1  0.4451120000000  0.5194030000000  0.4354250000000 1.0
C      1  0.4448510000000  0.5651500000000  0.4801510000000 1.0
C      1  0.4801610000000  0.4447540000000  0.5645660000000 1.0
C      1  0.5648130000000  0.4798150000000  0.4447010000000 1.0
C      1  0.5551920000000  0.5655630000000  0.5200710000000 1.0
C      1  0.4448520000000  0.4342410000000  0.5196840000000 1.0
C      1  0.5551940000000  0.4338290000000  0.4797650000000 1.0
C      1  0.5196270000000  0.4438400000000  0.4343020000000 1.0
C      1  0.4801610000000  0.5546370000000  0.4352700000000 1.0
C      1  0.5196260000000  0.5555520000000  0.5655340000000 1.0
C      1  0.4348750000000  0.4796550000000  0.5544760000000 1.0
C      1  0.5648120000000  0.5195770000000  0.5551350000000 1.0
C      1  0.4348750000000  0.5197360000000  0.4453600000000 1.0
C      1  0.4732420000000  0.4186390000000  0.4988410000000 1.0
C      1  0.4198170000000  0.4987720000000  0.4736790000000 1.0
C      1  0.4986690000000  0.4728870000000  0.4194080000000 1.0
C      1  0.5264860000000  0.4186790000000  0.5007740000000 1.0
C      1  0.5264850000000  0.5807120000000  0.4990620000000 1.0
C      1  0.4732400000000  0.5807520000000  0.5009950000000 1.0
C      1  0.5793030000000  0.4987480000000  0.5260940000000 1.0
C      1  0.5793030000000  0.5006440000000  0.4737430000000 1.0
C      1  0.4198170000000  0.5006190000000  0.5261560000000 1.0
C      1  0.5005710000000  0.4736790000000  0.5797360000000 1.0
C      1  0.5005710000000  0.5257120000000  0.4201000000000 1.0
C      1  0.4986680000000  0.5265040000000  0.5804280000000 1.0
C      1  0.4988050000000  0.4184900000000  0.4730440000000 1.0
C      1  0.4735740000000  0.4985380000000  0.4204640000000 1.0
C      1  0.4194860000000  0.4732210000000  0.4988770000000 1.0
C      1  0.5007530000000  0.4188210000000  0.5263090000000 1.0
C      1  0.4988040000000  0.5809010000000  0.5267920000000 1.0
C      1  0.5007520000000  0.5805700000000  0.4735270000000 1.0
C      1  0.5259640000000  0.4989450000000  0.5799870000000 1.0
C      1  0.4735740000000  0.5008540000000  0.5793710000000 1.0
C      1  0.5259650000000  0.5004470000000  0.4198490000000 1.0
C      1  0.5796220000000  0.4734350000000  0.5008230000000 1.0
C      1  0.4194860000000  0.5261700000000  0.5009590000000 1.0
C      1  0.5796220000000  0.5259570000000  0.4990140000000 1.0
C      1  0.4836840000000  0.5345430000000  0.4480610000000 1.0
C      1  0.5347470000000  0.4457460000000  0.4830730000000 1.0
C      1  0.4473080000000  0.4830100000000  0.5341400000000 1.0
C      1  0.5162950000000  0.5355990000000  0.5529520000000 1.0
C      1  0.5162960000000  0.4637930000000  0.4468840000000 1.0
C      1  0.4836840000000  0.4648480000000  0.5517740000000 1.0
C      1  0.4652390000000  0.4465790000000  0.5159590000000 1.0
C      1  0.4652380000000  0.5528130000000  0.4838760000000 1.0
C      1  0.5347460000000  0.5536460000000  0.5167630000000 1.0
C      1  0.5522070000000  0.4825960000000  0.4647650000000 1.0
C      1  0.5522070000000  0.5167960000000  0.5350720000000 1.0
C      1  0.4473080000000  0.5163810000000  0.4656950000000 1.0
C      1  0.4475100000000  0.5347690000000  0.4840650000000 1.0
C      1  0.4835190000000  0.4466750000000  0.5341590000000 1.0
C      1  0.5345900000000  0.4823980000000  0.4467200000000 1.0
C      1  0.5522560000000  0.5352970000000  0.5167140000000 1.0
C      1  0.4475110000000  0.4646220000000  0.5157710000000 1.0
C      1  0.5522570000000  0.4640950000000  0.4831220000000 1.0
C      1  0.5163730000000  0.4456120000000  0.4645810000000 1.0
C      1  0.4835190000000  0.5527170000000  0.4656770000000 1.0
C      1  0.5163720000000  0.5537800000000  0.5352550000000 1.0
C      1  0.4652790000000  0.4832010000000  0.5516920000000 1.0
C      1  0.5345890000000  0.5169940000000  0.5531160000000 1.0
C      1  0.4652790000000  0.5161900000000  0.4481440000000 1.0
C      1  0.5249690000000  0.5733120000000  0.4648490000000 1.0
C      1  0.5737330000000  0.4644600000000  0.5251790000000 1.0
C      1  0.4645430000000  0.5251570000000  0.5735500000000 1.0
C      1  0.4744910000000  0.5735210000000  0.5353250000000 1.0
C      1  0.4744920000000  0.4258710000000  0.4645100000000 1.0
C      1  0.5249700000000  0.4260800000000  0.5349870000000 1.0
C      1  0.4254690000000  0.4639540000000  0.4747730000000 1.0
C      1  0.4254680000000  0.5354370000000  0.5250630000000 1.0
C      1  0.5737320000000  0.5349320000000  0.4746580000000 1.0
C      1  0.5342630000000  0.5248630000000  0.4271280000000 1.0
C      1  0.5342630000000  0.4745290000000  0.5727080000000 1.0
C      1  0.4645440000000  0.4742340000000  0.4262860000000 1.0
C      1  0.4645340000000  0.5736280000000  0.5252950000000 1.0
C      1  0.5246340000000  0.4642660000000  0.5739020000000 1.0
C      1  0.5733430000000  0.5248660000000  0.4647350000000 1.0
C      1  0.5349590000000  0.5731490000000  0.4748250000000 1.0
C      1  0.4645350000000  0.4257630000000  0.4745400000000 1.0
C      1  0.5349600000000  0.4262430000000  0.5250110000000 1.0
C      1  0.4742880000000  0.4640230000000  0.4255120000000 1.0
C      1  0.5246340000000  0.5351260000000  0.4259340000000 1.0
C      1  0.4742870000000  0.5353680000000  0.5743240000000 1.0
C      1  0.4267960000000  0.5251020000000  0.5346220000000 1.0
C      1  0.5733430000000  0.4745260000000  0.5351010000000 1.0
C      1  0.4267970000000  0.4742890000000  0.4652140000000 1.0
C      1  0.4884160000000  0.4259830000000  0.4667080000000 1.0
C      1  0.4265410000000  0.4668440000000  0.4884820000000 1.0
C      1  0.4675090000000  0.4879310000000  0.4275050000000 1.0
C      1  0.5111230000000  0.4262930000000  0.5325680000000 1.0
C      1  0.5111220000000  0.5730990000000  0.4672680000000 1.0
C      1  0.4884150000000  0.5734080000000  0.5331280000000 1.0
C      1  0.5726950000000  0.4671970000000  0.5113810000000 1.0
C      1  0.5726950000000  0.5321950000000  0.4884550000000 1.0
C      1  0.4265400000000  0.5325470000000  0.5113530000000 1.0
C      1  0.5320090000000  0.4884340000000  0.5724390000000 1.0
C      1  0.5320090000000  0.5109570000000  0.4273970000000 1.0
C      1  0.4675080000000  0.5114600000000  0.5723310000000 1.0
C      1  0.4669080000000  0.4259980000000  0.4884180000000 1.0
C      1  0.4881380000000  0.4665860000000  0.4263570000000 1.0
C      1  0.4272330000000  0.4881800000000  0.4675990000000 1.0
C      1  0.5327180000000  0.4262900000000  0.5111210000000 1.0
C      1  0.4669070000000  0.5733930000000  0.5114180000000 1.0
C      1  0.5327170000000  0.5731020000000  0.4887150000000 1.0
C      1  0.5109640000000  0.4672430000000  0.5727530000000 1.0
C      1  0.4881370000000  0.5328060000000  0.5734790000000 1.0
C      1  0.5109630000000  0.5321490000000  0.4270830000000 1.0
C      1  0.5722060000000  0.4882420000000  0.5322200000000 1.0
C      1  0.4272330000000  0.5112100000000  0.5322370000000 1.0
C      1  0.5722060000000  0.5111510000000  0.4676170000000 1.0
C      1  0.4606340000000  0.4808020000000  0.5279620000000 1.0
C      1  0.4817990000000  0.5289820000000  0.4615920000000 1.0
C      1  0.5283290000000  0.4587780000000  0.4811840000000 1.0
C      1  0.5389080000000  0.4796930000000  0.4702470000000 1.0
C      1  0.5389070000000  0.5196980000000  0.5295890000000 1.0
C      1  0.4606340000000  0.5185890000000  0.4718740000000 1.0
C      1  0.5186770000000  0.5301360000000  0.5394740000000 1.0
C      1  0.5186780000000  0.4692560000000  0.4603620000000 1.0
C      1  0.4818000000000  0.4704100000000  0.5382440000000 1.0
C      1  0.4714430000000  0.4599940000000  0.5173990000000 1.0
C      1  0.4714430000000  0.5393980000000  0.4824360000000 1.0
C      1  0.5283280000000  0.5406130000000  0.5186530000000 1.0
C      1  0.5286220000000  0.4799800000000  0.4599060000000 1.0
C      1  0.4609630000000  0.5288910000000  0.4823870000000 1.0
C      1  0.4819080000000  0.4599770000000  0.5277940000000 1.0
C      1  0.4710540000000  0.4804900000000  0.5383030000000 1.0
C      1  0.5286210000000  0.5194120000000  0.5399310000000 1.0
C      1  0.4710530000000  0.5189010000000  0.4615330000000 1.0
C      1  0.5387110000000  0.5301830000000  0.5193780000000 1.0
C      1  0.4609630000000  0.4705000000000  0.5174480000000 1.0
C      1  0.5387120000000  0.4692090000000  0.4804580000000 1.0
C      1  0.5180290000000  0.4587880000000  0.4708160000000 1.0
C      1  0.4819080000000  0.5394140000000  0.4720420000000 1.0
C      1  0.5180280000000  0.5406030000000  0.5290200000000 1.0
C      1  0.4996940000000  0.5779670000000  0.5112330000000 1.0
C      1  0.5760200000000  0.5107570000000  0.4998340000000 1.0
C      1  0.5106260000000  0.4999800000000  0.5769520000000 1.0
C      1  0.4999530000000  0.5777120000000  0.4890530000000 1.0
C      1  0.4999540000000  0.4216800000000  0.5107830000000 1.0
C      1  0.4996960000000  0.4214250000000  0.4886030000000 1.0
C      1  0.4226750000000  0.5108420000000  0.5001660000000 1.0
C      1  0.4226750000000  0.4885490000000  0.4996690000000 1.0
C      1  0.5760200000000  0.4886350000000  0.5000020000000 1.0
C      1  0.4887210000000  0.4992870000000  0.4235070000000 1.0
C      1  0.4887210000000  0.5001040000000  0.5763290000000 1.0
C      1  0.5106260000000  0.4994120000000  0.4228840000000 1.0
C      1  0.5109250000000  0.5778910000000  0.5000000000000 1.0
C      1  0.4994850000000  0.5112150000000  0.5769100000000 1.0
C      1  0.5759710000000  0.4996110000000  0.5109200000000 1.0
C      1  0.4887530000000  0.5777850000000  0.5002440000000 1.0
C      1  0.5109260000000  0.4215000000000  0.4998360000000 1.0
C      1  0.4887540000000  0.4216060000000  0.4995920000000 1.0
C      1  0.4998020000000  0.5104140000000  0.4233730000000 1.0
C      1  0.4994850000000  0.4881760000000  0.4229260000000 1.0
C      1  0.4998010000000  0.4889780000000  0.5764630000000 1.0
C      1  0.4226750000000  0.4996830000000  0.4889940000000 1.0
C      1  0.5759710000000  0.4997810000000  0.4889160000000 1.0
C      1  0.4226750000000  0.4997080000000  0.5108410000000 1.0
C      1  0.5452860000000  0.5567830000000  0.5278150000000 1.0
C      1  0.5561050000000  0.5276180000000  0.5455290000000 1.0
C      1  0.5273800000000  0.5458490000000  0.5566070000000 1.0
C      1  0.4548070000000  0.5560910000000  0.4727420000000 1.0
C      1  0.4548070000000  0.4433000000000  0.5270940000000 1.0
C      1  0.5452870000000  0.4426090000000  0.4720210000000 1.0
C      1  0.4438610000000  0.5272950000000  0.4552100000000 1.0
C      1  0.4438610000000  0.4720960000000  0.5446250000000 1.0
C      1  0.5561050000000  0.4717740000000  0.4543070000000 1.0
C      1  0.4726100000000  0.5448680000000  0.4443460000000 1.0
C      1  0.4726100000000  0.4545230000000  0.5554900000000 1.0
C      1  0.5273810000000  0.4535430000000  0.4432290000000 1.0
C      1  0.5275480000000  0.5569420000000  0.5456600000000 1.0
C      1  0.5451290000000  0.5278200000000  0.5566170000000 1.0
C      1  0.5561400000000  0.5455710000000  0.5276630000000 1.0
C      1  0.4724790000000  0.5559480000000  0.4551400000000 1.0
C      1  0.5275500000000  0.4424500000000  0.4541760000000 1.0
C      1  0.4724790000000  0.4434430000000  0.5446960000000 1.0
C      1  0.4548490000000  0.5270950000000  0.4443050000000 1.0
C      1  0.5451300000000  0.4715720000000  0.4432190000000 1.0
C      1  0.4548500000000  0.4722960000000  0.5555310000000 1.0
C      1  0.4439330000000  0.5451040000000  0.4728960000000 1.0
C      1  0.5561410000000  0.4538210000000  0.4721740000000 1.0
C      1  0.4439340000000  0.4542870000000  0.5269400000000 1.0
C      1  0.5275980000000  0.4836940000000  0.5365580000000 1.0
C      1  0.4811390000000  0.5386390000000  0.5294300000000 1.0
C      1  0.5327890000000  0.5244250000000  0.4849870000000 1.0
C      1  0.4764400000000  0.4846470000000  0.4676950000000 1.0
C      1  0.4764390000000  0.5147440000000  0.5321410000000 1.0
C      1  0.5275980000000  0.5156970000000  0.4632780000000 1.0
C      1  0.5181960000000  0.5377580000000  0.4710940000000 1.0
C      1  0.5181970000000  0.4616330000000  0.5287420000000 1.0
C      1  0.4811400000000  0.4607520000000  0.4704060000000 1.0
C      1  0.4649180000000  0.5254420000000  0.5172640000000 1.0
C      1  0.4649180000000  0.4739490000000  0.4825710000000 1.0
C      1  0.5327890000000  0.4749670000000  0.5148490000000 1.0
C      1  0.5321340000000  0.4853090000000  0.5233750000000 1.0
C      1  0.5285760000000  0.5378680000000  0.4821020000000 1.0
C      1  0.4842860000000  0.5254540000000  0.5339020000000 1.0
C      1  0.4631410000000  0.4832960000000  0.4719710000000 1.0
C      1  0.5321340000000  0.5140820000000  0.4764620000000 1.0
C      1  0.4631410000000  0.5160950000000  0.5278640000000 1.0
C      1  0.4703840000000  0.5383510000000  0.5188540000000 1.0
C      1  0.5285770000000  0.4615240000000  0.5177350000000 1.0
C      1  0.4703850000000  0.4610400000000  0.4809810000000 1.0
C      1  0.5168140000000  0.5248320000000  0.4655100000000 1.0
C      1  0.4842860000000  0.4739370000000  0.4659340000000 1.0
C      1  0.5168140000000  0.4745590000000  0.5343260000000 1.0
C      1  0.5614090000000  0.4846800000000  0.4956640000000 1.0
C      1  0.4853470000000  0.4957970000000  0.5614800000000 1.0
C      1  0.4957080000000  0.5628050000000  0.4855570000000 1.0
C      1  0.4376330000000  0.4846380000000  0.5036490000000 1.0
C      1  0.4376330000000  0.5147530000000  0.4961870000000 1.0
C      1  0.5614080000000  0.5147120000000  0.5041720000000 1.0
C      1  0.5142700000000  0.4947410000000  0.4373020000000 1.0
C      1  0.5142690000000  0.5046510000000  0.5625340000000 1.0
C      1  0.4853470000000  0.5035940000000  0.4383560000000 1.0
C      1  0.5041000000000  0.5632920000000  0.5150690000000 1.0
C      1  0.5041020000000  0.4361000000000  0.4847670000000 1.0
C      1  0.4957090000000  0.4365870000000  0.5142790000000 1.0
C      1  0.4958630000000  0.4851560000000  0.5614830000000 1.0
C      1  0.5613690000000  0.4952900000000  0.4851390000000 1.0
C      1  0.4851860000000  0.5628710000000  0.4960750000000 1.0
C      1  0.5038160000000  0.4840910000000  0.4374740000000 1.0
C      1  0.4958630000000  0.5142360000000  0.4383530000000 1.0
C      1  0.5038160000000  0.5153000000000  0.5623620000000 1.0
C      1  0.4372960000000  0.4952540000000  0.5141500000000 1.0
C      1  0.5613680000000  0.5041020000000  0.5146970000000 1.0
C      1  0.4372960000000  0.5041370000000  0.4856850000000 1.0
C      1  0.5146480000000  0.5632260000000  0.5045010000000 1.0
C      1  0.4851870000000  0.4365210000000  0.5037610000000 1.0
C      1  0.5146490000000  0.4361650000000  0.4953350000000 1.0
C      1  0.4924990000000  0.4681040000000  0.5185760000000 1.0
C      1  0.4692130000000  0.5194200000000  0.4924890000000 1.0
C      1  0.5193540000000  0.4901380000000  0.4682060000000 1.0
C      1  0.5075480000000  0.4669830000000  0.4803110000000 1.0
C      1  0.5075470000000  0.5324090000000  0.5195250000000 1.0
C      1  0.4924990000000  0.5312880000000  0.4812600000000 1.0
C      1  0.5305930000000  0.5212960000000  0.5094620000000 1.0
C      1  0.5305930000000  0.4780960000000  0.4903740000000 1.0
C      1  0.4692130000000  0.4799710000000  0.5073470000000 1.0
C      1  0.4800640000000  0.4904370000000  0.5303610000000 1.0
C      1  0.4800640000000  0.5089540000000  0.4694750000000 1.0
C      1  0.5193540000000  0.5092530000000  0.5316300000000 1.0
C      1  0.5188920000000  0.4670210000000  0.4916390000000 1.0
C      1  0.4919890000000  0.5196520000000  0.4697610000000 1.0
C      1  0.4688020000000  0.4910570000000  0.5187650000000 1.0
C      1  0.4806820000000  0.4680400000000  0.5068030000000 1.0
C      1  0.5188910000000  0.5323710000000  0.5081970000000 1.0
C      1  0.4806810000000  0.5313520000000  0.4930330000000 1.0
C      1  0.5086520000000  0.5211650000000  0.5313000000000 1.0
C      1  0.4919890000000  0.4797390000000  0.5300740000000 1.0
C      1  0.5086530000000  0.4782270000000  0.4685360000000 1.0
C      1  0.5307720000000  0.4894840000000  0.4791950000000 1.0
C      1  0.4688020000000  0.5083340000000  0.4810710000000 1.0
C      1  0.5307720000000  0.5099080000000  0.5206410000000 1.0
C      1  0.5145740000000  0.5261380000000  0.5644100000000 1.0
C      1  0.5256320000000  0.5653420000000  0.5152750000000 1.0
C      1  0.5635480000000  0.5149300000000  0.5255690000000 1.0
C      1  0.4851170000000  0.5251260000000  0.4365500000000 1.0
C      1  0.4851170000000  0.4742650000000  0.5632860000000 1.0
C      1  0.5145740000000  0.4732530000000  0.4354260000000 1.0
C      1  0.4742670000000  0.5646610000000  0.4852450000000 1.0
C      1  0.4742680000000  0.4347300000000  0.5145900000000 1.0
C      1  0.5256330000000  0.4340490000000  0.4845610000000 1.0
C      1  0.4355510000000  0.5149770000000  0.4747960000000 1.0
C      1  0.4355510000000  0.4844140000000  0.5250390000000 1.0
C      1  0.5635490000000  0.4844620000000  0.4742670000000 1.0
C      1  0.5635490000000  0.5256010000000  0.5149180000000 1.0
C      1  0.5149190000000  0.5654060000000  0.5260120000000 1.0
C      1  0.5252200000000  0.5154400000000  0.5646360000000 1.0
C      1  0.4358340000000  0.5256030000000  0.4854440000000 1.0
C      1  0.5635500000000  0.4737910000000  0.4849180000000 1.0
C      1  0.4358340000000  0.4737880000000  0.5143910000000 1.0
C      1  0.4849130000000  0.5646190000000  0.4746000000000 1.0
C      1  0.5149200000000  0.4339850000000  0.4738240000000 1.0
C      1  0.4849140000000  0.4347730000000  0.5252360000000 1.0
C      1  0.4745110000000  0.5144710000000  0.4365670000000 1.0
C      1  0.5252210000000  0.4839510000000  0.4352000000000 1.0
C      1  0.4745110000000  0.4849200000000  0.5632690000000 1.0
C      1  0.4584010000000  0.4580800000000  0.5575430000000 1.0
C      1  0.4584010000000  0.5413120000000  0.4422930000000 1.0
C      1  0.5417790000000  0.4407370000000  0.4578020000000 1.0
C      1  0.5416330000000  0.4573160000000  0.4413400000000 1.0
C      1  0.5581020000000  0.4575050000000  0.4579150000000 1.0
C      1  0.4419330000000  0.5414830000000  0.4586890000000 1.0
C      1  0.4419330000000  0.4579080000000  0.5411460000000 1.0
C      1  0.4583010000000  0.5579350000000  0.4585500000000 1.0
C      1  0.5416320000000  0.5420760000000  0.5584970000000 1.0
C      1  0.4583020000000  0.4414570000000  0.5412860000000 1.0
C      1  0.5417780000000  0.5586550000000  0.5420340000000 1.0
C      1  0.5581020000000  0.5418860000000  0.5419220000000 1.0
C      1  0.4501760000000  0.5495710000000  0.4504170000000 1.0
C      1  0.4501760000000  0.4498190000000  0.5494180000000 1.0
C      1  0.5498030000000  0.4493480000000  0.4497860000000 1.0
C      1  0.5498020000000  0.5500440000000  0.5500510000000 1.0
END
