TITL C-1892078-2854-47 -2.36529065394504e-07 1000000 -2992.18773517126 0 0 420 (C1) n - 1
REM
REM in /nfs/bkarasulu/CARBON/AIRSS/Generating-Clusters/GAP-ML-2020/Higher-Symm/Selected-Sizes/TryA-Only_Ih-Symm/Larger-Clusters
REM
REM
REM
REM
REM
REM ./C.cell (2cf5181f0f1d4d5b12b972d32ad12063)
REM
REM compiler GCC version 9.2.1 20190827 (Red Hat 9.2.1-1)
REM options -cpp -mtune=generic -march=x86-64 -g -O0 -fpre-include=/usr/include/finclude/math-vector-fortran.h
REM seed 1578690523 -1748544810 599933227 -1773883843 -1031360136 1841888254 -919442812 -1199922125 -511913161 -105573387 -1763232187 2119184136 49378012 1191598061 -493532439 699845033 649112617 -1698308264 -1259160385 237424303 779866644 762439246 -407808564 987834388 1852847403 -422125952 834586220 4908498 684157626 759679217 2035266088 -293147725 -1490453410
REM
CELL 1.54180  100.00000  100.00000  100.00000   90.00000   90.00000   90.00000
LATT -1
SFAC C  
C      1  0.4697230000000  0.4947580000000  0.4463340000000 1.0
C      1  0.4948240000000  0.4455910000000  0.4696050000000 1.0
C      1  0.4463980000000  0.4699970000000  0.4941450000000 1.0
C      1  0.4698880000000  0.5055890000000  0.5536380000000 1.0
C      1  0.5313290000000  0.4943080000000  0.5544650000000 1.0
C      1  0.5315770000000  0.5056820000000  0.4459820000000 1.0
C      1  0.4940790000000  0.5537600000000  0.5299740000000 1.0
C      1  0.5058720000000  0.4457620000000  0.5313180000000 1.0
C      1  0.5057090000000  0.5547010000000  0.4687340000000 1.0
C      1  0.4455660000000  0.5303940000000  0.5051480000000 1.0
C      1  0.5534790000000  0.4703080000000  0.5060350000000 1.0
C      1  0.5537360000000  0.5299580000000  0.4945010000000 1.0
C      1  0.4690090000000  0.4455080000000  0.4939890000000 1.0
C      1  0.4943410000000  0.4685870000000  0.4460230000000 1.0
C      1  0.4457550000000  0.4943040000000  0.4687960000000 1.0
C      1  0.4683210000000  0.5548100000000  0.5055480000000 1.0
C      1  0.5300540000000  0.5536600000000  0.4944120000000 1.0
C      1  0.5314170000000  0.4454140000000  0.5059120000000 1.0
C      1  0.4940850000000  0.5313190000000  0.5543930000000 1.0
C      1  0.5059210000000  0.5312680000000  0.4460720000000 1.0
C      1  0.5056070000000  0.4697900000000  0.5537270000000 1.0
C      1  0.4464680000000  0.5057060000000  0.5297790000000 1.0
C      1  0.5538250000000  0.5054220000000  0.4702300000000 1.0
C      1  0.5544110000000  0.4946660000000  0.5304440000000 1.0
C      1  0.5369310000000  0.5264180000000  0.4354750000000 1.0
C      1  0.5264740000000  0.4351210000000  0.5371050000000 1.0
C      1  0.4352560000000  0.5371210000000  0.5262070000000 1.0
C      1  0.5369240000000  0.4734920000000  0.5648440000000 1.0
C      1  0.4630060000000  0.5263890000000  0.5644520000000 1.0
C      1  0.4632800000000  0.4738050000000  0.4355640000000 1.0
C      1  0.5264920000000  0.5648750000000  0.4630110000000 1.0
C      1  0.4739030000000  0.4352240000000  0.4628780000000 1.0
C      1  0.4734720000000  0.5647750000000  0.5370310000000 1.0
C      1  0.4355850000000  0.4627980000000  0.4735150000000 1.0
C      1  0.5646720000000  0.5369700000000  0.4736560000000 1.0
C      1  0.5646420000000  0.4628620000000  0.5266160000000 1.0
C      1  0.5370360000000  0.4350520000000  0.5266840000000 1.0
C      1  0.5265290000000  0.5369960000000  0.4353780000000 1.0
C      1  0.4353740000000  0.5264560000000  0.5367250000000 1.0
C      1  0.5368960000000  0.5646490000000  0.4736450000000 1.0
C      1  0.4629500000000  0.5648740000000  0.5265200000000 1.0
C      1  0.4633700000000  0.4350360000000  0.4733480000000 1.0
C      1  0.5263570000000  0.4629660000000  0.5647020000000 1.0
C      1  0.4737560000000  0.4632240000000  0.4352560000000 1.0
C      1  0.4733900000000  0.5370600000000  0.5648340000000 1.0
C      1  0.4355350000000  0.4733470000000  0.4629470000000 1.0
C      1  0.5646440000000  0.4734580000000  0.5372390000000 1.0
C      1  0.5645980000000  0.5263370000000  0.4630340000000 1.0
C      1  0.5109390000000  0.5674880000000  0.5002220000000 1.0
C      1  0.5690600000000  0.5000720000000  0.5109940000000 1.0
C      1  0.4995870000000  0.5104660000000  0.5660400000000 1.0
C      1  0.5109780000000  0.4336270000000  0.5003160000000 1.0
C      1  0.4895220000000  0.5665290000000  0.5003730000000 1.0
C      1  0.4897700000000  0.4340360000000  0.4996410000000 1.0
C      1  0.5687370000000  0.4999120000000  0.4893920000000 1.0
C      1  0.4328500000000  0.4993770000000  0.4892980000000 1.0
C      1  0.4318910000000  0.4999810000000  0.5105630000000 1.0
C      1  0.4997650000000  0.4896250000000  0.4348750000000 1.0
C      1  0.5004240000000  0.5108090000000  0.4345440000000 1.0
C      1  0.4997300000000  0.4890330000000  0.5676070000000 1.0
C      1  0.5103060000000  0.4996030000000  0.5662130000000 1.0
C      1  0.5688090000000  0.5106940000000  0.5000020000000 1.0
C      1  0.5001300000000  0.5676450000000  0.5109270000000 1.0
C      1  0.5107790000000  0.5000980000000  0.4348210000000 1.0
C      1  0.4890240000000  0.4998530000000  0.5673960000000 1.0
C      1  0.4893610000000  0.5005090000000  0.4337550000000 1.0
C      1  0.5686610000000  0.4893030000000  0.5003950000000 1.0
C      1  0.4320190000000  0.4889670000000  0.4999950000000 1.0
C      1  0.4318670000000  0.5105350000000  0.4996200000000 1.0
C      1  0.5005510000000  0.4326680000000  0.4892660000000 1.0
C      1  0.5003200000000  0.4341090000000  0.5106760000000 1.0
C      1  0.5003020000000  0.5662450000000  0.4895670000000 1.0
C      1  0.4968580000000  0.5630070000000  0.4595070000000 1.0
C      1  0.5617190000000  0.4596730000000  0.4974630000000 1.0
C      1  0.4595620000000  0.4973480000000  0.5623100000000 1.0
C      1  0.4974640000000  0.4371170000000  0.5408810000000 1.0
C      1  0.5025370000000  0.5621020000000  0.5404960000000 1.0
C      1  0.5027780000000  0.4368750000000  0.4590170000000 1.0
C      1  0.5623260000000  0.5403590000000  0.5027950000000 1.0
C      1  0.4380530000000  0.4593350000000  0.5024060000000 1.0
C      1  0.4369100000000  0.5410300000000  0.4971540000000 1.0
C      1  0.4593030000000  0.5028800000000  0.4376880000000 1.0
C      1  0.5407840000000  0.4971040000000  0.4372590000000 1.0
C      1  0.5408670000000  0.5027790000000  0.5630120000000 1.0
C      1  0.4975440000000  0.4591810000000  0.5625210000000 1.0
C      1  0.5622880000000  0.4972730000000  0.4594480000000 1.0
C      1  0.4587720000000  0.5633840000000  0.4971380000000 1.0
C      1  0.4971050000000  0.5406790000000  0.4377520000000 1.0
C      1  0.5028530000000  0.5404800000000  0.5627300000000 1.0
C      1  0.5028710000000  0.4592430000000  0.4373640000000 1.0
C      1  0.5630350000000  0.5026890000000  0.5411340000000 1.0
C      1  0.4372860000000  0.5030660000000  0.4594150000000 1.0
C      1  0.4379980000000  0.4974050000000  0.5402500000000 1.0
C      1  0.4598210000000  0.4371450000000  0.5027810000000 1.0
C      1  0.5405660000000  0.4370010000000  0.4971220000000 1.0
C      1  0.5406020000000  0.5622150000000  0.5025740000000 1.0
C      1  0.5229420000000  0.4956760000000  0.4855470000000 1.0
C      1  0.4968350000000  0.4850030000000  0.5235060000000 1.0
C      1  0.4845390000000  0.5267180000000  0.4931700000000 1.0
C      1  0.5234410000000  0.5051420000000  0.5156610000000 1.0
C      1  0.4769960000000  0.4956840000000  0.5133540000000 1.0
C      1  0.4747770000000  0.5059140000000  0.4849260000000 1.0
C      1  0.4958680000000  0.5142380000000  0.4747410000000 1.0
C      1  0.5052560000000  0.4841760000000  0.4741660000000 1.0
C      1  0.5065220000000  0.5187150000000  0.5273690000000 1.0
C      1  0.4825260000000  0.4728080000000  0.5065450000000 1.0
C      1  0.5123050000000  0.5238860000000  0.5037750000000 1.0
C      1  0.5164280000000  0.4729940000000  0.4934610000000 1.0
C      1  0.5228650000000  0.4856450000000  0.4963000000000 1.0
C      1  0.4928660000000  0.5274510000000  0.4808570000000 1.0
C      1  0.4869740000000  0.4957830000000  0.5233080000000 1.0
C      1  0.5229840000000  0.5148460000000  0.5052850000000 1.0
C      1  0.4756100000000  0.5162010000000  0.4946580000000 1.0
C      1  0.4765700000000  0.4857170000000  0.5028110000000 1.0
C      1  0.4948690000000  0.4738470000000  0.5148570000000 1.0
C      1  0.5042720000000  0.4749270000000  0.4847280000000 1.0
C      1  0.5022060000000  0.5243130000000  0.5142470000000 1.0
C      1  0.4855480000000  0.5040590000000  0.4759880000000 1.0
C      1  0.5149710000000  0.5065340000000  0.5265570000000 1.0
C      1  0.5147680000000  0.4943680000000  0.4742670000000 1.0
C      1  0.4412900000000  0.4505060000000  0.5128700000000 1.0
C      1  0.4501170000000  0.5131860000000  0.4405470000000 1.0
C      1  0.5129470000000  0.4397720000000  0.4497180000000 1.0
C      1  0.4396210000000  0.5504510000000  0.4869780000000 1.0
C      1  0.5585850000000  0.4507740000000  0.4869470000000 1.0
C      1  0.5593720000000  0.5493270000000  0.5131380000000 1.0
C      1  0.4507350000000  0.4869630000000  0.5592450000000 1.0
C      1  0.5502250000000  0.5129730000000  0.5602580000000 1.0
C      1  0.5497470000000  0.4867300000000  0.4402000000000 1.0
C      1  0.5130110000000  0.5588820000000  0.5493160000000 1.0
C      1  0.4872220000000  0.4399670000000  0.5500540000000 1.0
C      1  0.4864860000000  0.5596940000000  0.4505980000000 1.0
C      1  0.4401790000000  0.5133930000000  0.4503620000000 1.0
C      1  0.4509150000000  0.4404040000000  0.5130960000000 1.0
C      1  0.5130430000000  0.4498440000000  0.4399610000000 1.0
C      1  0.4409970000000  0.4870520000000  0.5492690000000 1.0
C      1  0.5593760000000  0.4869280000000  0.4502970000000 1.0
C      1  0.5601100000000  0.5129590000000  0.5503110000000 1.0
C      1  0.4494190000000  0.5605210000000  0.4869480000000 1.0
C      1  0.5495370000000  0.5592070000000  0.5129720000000 1.0
C      1  0.5491680000000  0.4404820000000  0.4866830000000 1.0
C      1  0.5132270000000  0.5492730000000  0.5594140000000 1.0
C      1  0.4866350000000  0.5496180000000  0.4409000000000 1.0
C      1  0.4872560000000  0.4500460000000  0.5597400000000 1.0
C      1  0.5443110000000  0.4745470000000  0.4349870000000 1.0
C      1  0.4749970000000  0.4348880000000  0.5445500000000 1.0
C      1  0.4347100000000  0.5447750000000  0.4747460000000 1.0
C      1  0.5446540000000  0.5252140000000  0.5652200000000 1.0
C      1  0.4562790000000  0.4748170000000  0.5643490000000 1.0
C      1  0.4556280000000  0.5253730000000  0.4356190000000 1.0
C      1  0.4743440000000  0.5648930000000  0.4559200000000 1.0
C      1  0.5252030000000  0.4347490000000  0.4552440000000 1.0
C      1  0.5251040000000  0.5636730000000  0.5436980000000 1.0
C      1  0.4364980000000  0.4561910000000  0.5249370000000 1.0
C      1  0.5645990000000  0.5439040000000  0.5253020000000 1.0
C      1  0.5634990000000  0.4562960000000  0.4749050000000 1.0
C      1  0.5438130000000  0.4353240000000  0.4745290000000 1.0
C      1  0.4745610000000  0.5439950000000  0.4360590000000 1.0
C      1  0.4361120000000  0.4748760000000  0.5437300000000 1.0
C      1  0.5439690000000  0.5641000000000  0.5251390000000 1.0
C      1  0.4550280000000  0.5654450000000  0.4746810000000 1.0
C      1  0.4562490000000  0.4352690000000  0.5252810000000 1.0
C      1  0.4750730000000  0.4557960000000  0.5645680000000 1.0
C      1  0.5252620000000  0.4553880000000  0.4348850000000 1.0
C      1  0.5253690000000  0.5439610000000  0.5646370000000 1.0
C      1  0.4349610000000  0.5255590000000  0.4558220000000 1.0
C      1  0.5648950000000  0.5251470000000  0.5444860000000 1.0
C      1  0.5641530000000  0.4747550000000  0.4559140000000 1.0
C      1  0.4445880000000  0.5181800000000  0.4966980000000 1.0
C      1  0.5182820000000  0.4976210000000  0.4483490000000 1.0
C      1  0.4980160000000  0.4478160000000  0.5178760000000 1.0
C      1  0.4453190000000  0.4819560000000  0.5025500000000 1.0
C      1  0.5549230000000  0.5175280000000  0.5025470000000 1.0
C      1  0.5546130000000  0.4827780000000  0.4982930000000 1.0
C      1  0.5174950000000  0.5016320000000  0.5521860000000 1.0
C      1  0.4819440000000  0.4972170000000  0.5542530000000 1.0
C      1  0.4815830000000  0.5036170000000  0.4459960000000 1.0
C      1  0.4980080000000  0.5522840000000  0.4822860000000 1.0
C      1  0.5035010000000  0.4449100000000  0.4815470000000 1.0
C      1  0.5026060000000  0.5544270000000  0.5180310000000 1.0
C      1  0.4456560000000  0.4976890000000  0.5173630000000 1.0
C      1  0.5180010000000  0.4475320000000  0.4979210000000 1.0
C      1  0.4981770000000  0.5178770000000  0.4484860000000 1.0
C      1  0.4478170000000  0.5017320000000  0.4825820000000 1.0
C      1  0.5557550000000  0.5030000000000  0.5183180000000 1.0
C      1  0.5551750000000  0.4972780000000  0.4823960000000 1.0
C      1  0.5181420000000  0.5544240000000  0.5029690000000 1.0
C      1  0.4821810000000  0.5526020000000  0.4982170000000 1.0
C      1  0.4825860000000  0.4478930000000  0.5016410000000 1.0
C      1  0.4969410000000  0.4816280000000  0.5547390000000 1.0
C      1  0.5019550000000  0.4822190000000  0.4486060000000 1.0
C      1  0.5017700000000  0.5177410000000  0.5520620000000 1.0
C      1  0.4730430000000  0.5658290000000  0.5153880000000 1.0
C      1  0.5653940000000  0.5154720000000  0.4732280000000 1.0
C      1  0.5155330000000  0.4732960000000  0.5653460000000 1.0
C      1  0.4736200000000  0.4342470000000  0.4844680000000 1.0
C      1  0.5265570000000  0.5653100000000  0.4844910000000 1.0
C      1  0.5268960000000  0.4343400000000  0.5155570000000 1.0
C      1  0.5656760000000  0.4844270000000  0.5271450000000 1.0
C      1  0.4346770000000  0.5156400000000  0.5264920000000 1.0
C      1  0.4346350000000  0.4844310000000  0.4729890000000 1.0
C      1  0.5154750000000  0.5267720000000  0.4348800000000 1.0
C      1  0.4847520000000  0.4735120000000  0.4348750000000 1.0
C      1  0.4845270000000  0.5267870000000  0.5655180000000 1.0
C      1  0.4733430000000  0.5155720000000  0.5652020000000 1.0
C      1  0.5653800000000  0.4731440000000  0.5158530000000 1.0
C      1  0.5153190000000  0.5657080000000  0.4732180000000 1.0
C      1  0.4735160000000  0.4848320000000  0.4349470000000 1.0
C      1  0.5267620000000  0.4845560000000  0.5655370000000 1.0
C      1  0.5267060000000  0.5153220000000  0.4349340000000 1.0
C      1  0.5653590000000  0.5267510000000  0.4844600000000 1.0
C      1  0.4343080000000  0.5268850000000  0.5152420000000 1.0
C      1  0.4347600000000  0.4731730000000  0.4842940000000 1.0
C      1  0.5155020000000  0.4345130000000  0.5267040000000 1.0
C      1  0.4848300000000  0.4342310000000  0.4732880000000 1.0
C      1  0.4843420000000  0.5655330000000  0.5266760000000 1.0
C      1  0.5470460000000  0.5567450000000  0.5369800000000 1.0
C      1  0.5575780000000  0.5370170000000  0.5474940000000 1.0
C      1  0.5371590000000  0.5466460000000  0.5572050000000 1.0
C      1  0.5465740000000  0.4427670000000  0.4627560000000 1.0
C      1  0.4521510000000  0.5579300000000  0.4628580000000 1.0
C      1  0.4535440000000  0.4427840000000  0.5370120000000 1.0
C      1  0.5567990000000  0.4629200000000  0.4527790000000 1.0
C      1  0.4421930000000  0.5374990000000  0.4529200000000 1.0
C      1  0.4434790000000  0.4630700000000  0.5468010000000 1.0
C      1  0.5371820000000  0.4523600000000  0.4420940000000 1.0
C      1  0.4627410000000  0.5470450000000  0.4433540000000 1.0
C      1  0.4632330000000  0.4527190000000  0.5572710000000 1.0
C      1  0.5475280000000  0.5370150000000  0.5577120000000 1.0
C      1  0.5573780000000  0.5468470000000  0.5372240000000 1.0
C      1  0.5369010000000  0.5563770000000  0.5467700000000 1.0
C      1  0.5471050000000  0.4625960000000  0.4422340000000 1.0
C      1  0.4533900000000  0.4629240000000  0.5570870000000 1.0
C      1  0.4525510000000  0.5372430000000  0.4429930000000 1.0
C      1  0.5562840000000  0.4532370000000  0.4630470000000 1.0
C      1  0.4438300000000  0.4532170000000  0.5367240000000 1.0
C      1  0.4420200000000  0.5477610000000  0.4628260000000 1.0
C      1  0.5370170000000  0.4422930000000  0.4523240000000 1.0
C      1  0.4632200000000  0.4424350000000  0.5473220000000 1.0
C      1  0.4625380000000  0.5574310000000  0.4531940000000 1.0
C      1  0.5307700000000  0.5097020000000  0.4603140000000 1.0
C      1  0.5098880000000  0.4599960000000  0.5303880000000 1.0
C      1  0.4598760000000  0.5301150000000  0.5087980000000 1.0
C      1  0.5309780000000  0.4907880000000  0.5401880000000 1.0
C      1  0.4706850000000  0.5086430000000  0.5391890000000 1.0
C      1  0.4704330000000  0.4909000000000  0.4605050000000 1.0
C      1  0.5104400000000  0.5406250000000  0.4691260000000 1.0
C      1  0.4910770000000  0.4598130000000  0.4703850000000 1.0
C      1  0.4896140000000  0.5396830000000  0.5295830000000 1.0
C      1  0.4606500000000  0.4704530000000  0.4901940000000 1.0
C      1  0.5392360000000  0.5296740000000  0.4915200000000 1.0
C      1  0.5391460000000  0.4704050000000  0.5096190000000 1.0
C      1  0.5305230000000  0.4597210000000  0.5100960000000 1.0
C      1  0.5103660000000  0.5305210000000  0.4601090000000 1.0
C      1  0.4608570000000  0.5088230000000  0.5294470000000 1.0
C      1  0.5291640000000  0.5392620000000  0.4911090000000 1.0
C      1  0.4686500000000  0.5404960000000  0.5088280000000 1.0
C      1  0.4693030000000  0.4597200000000  0.4896920000000 1.0
C      1  0.5095120000000  0.4703550000000  0.5393930000000 1.0
C      1  0.4902600000000  0.4688200000000  0.4601570000000 1.0
C      1  0.4893840000000  0.5309830000000  0.5403090000000 1.0
C      1  0.4600490000000  0.4909050000000  0.4693170000000 1.0
C      1  0.5399390000000  0.4916900000000  0.5299970000000 1.0
C      1  0.5394450000000  0.5087460000000  0.4707880000000 1.0
C      1  0.4971260000000  0.5226910000000  0.5741050000000 1.0
C      1  0.5233860000000  0.5747300000000  0.4969010000000 1.0
C      1  0.5755430000000  0.4968380000000  0.5239200000000 1.0
C      1  0.4972650000000  0.4775920000000  0.4264730000000 1.0
C      1  0.5029820000000  0.5228480000000  0.4263890000000 1.0
C      1  0.5031660000000  0.4766120000000  0.5748180000000 1.0
C      1  0.5230030000000  0.4255920000000  0.5030550000000 1.0
C      1  0.4770820000000  0.5744570000000  0.5027840000000 1.0
C      1  0.4776570000000  0.4257910000000  0.4971610000000 1.0
C      1  0.5751030000000  0.5030460000000  0.4764090000000 1.0
C      1  0.4256620000000  0.4969230000000  0.4768000000000 1.0
C      1  0.4252330000000  0.5031280000000  0.5233270000000 1.0
C      1  0.4968940000000  0.5747840000000  0.5234140000000 1.0
C      1  0.5226870000000  0.4971500000000  0.5741610000000 1.0
C      1  0.5750900000000  0.5235840000000  0.4968680000000 1.0
C      1  0.4972640000000  0.4248620000000  0.4768240000000 1.0
C      1  0.5030180000000  0.4259050000000  0.5227810000000 1.0
C      1  0.5026850000000  0.5743460000000  0.4773130000000 1.0
C      1  0.5226340000000  0.5028060000000  0.4263710000000 1.0
C      1  0.4766600000000  0.5031790000000  0.5747040000000 1.0
C      1  0.4770980000000  0.4972640000000  0.4257480000000 1.0
C      1  0.5748670000000  0.4762870000000  0.5033030000000 1.0
C      1  0.4252300000000  0.4763130000000  0.4967290000000 1.0
C      1  0.4247470000000  0.5233820000000  0.5027930000000 1.0
C      1  0.5074940000000  0.4258620000000  0.4671940000000 1.0
C      1  0.4269070000000  0.4671530000000  0.5071890000000 1.0
C      1  0.4674910000000  0.5075290000000  0.4267150000000 1.0
C      1  0.5073550000000  0.5731760000000  0.5326200000000 1.0
C      1  0.4926840000000  0.4266510000000  0.5322720000000 1.0
C      1  0.4920760000000  0.5735110000000  0.4679940000000 1.0
C      1  0.4259140000000  0.5328730000000  0.4924520000000 1.0
C      1  0.5729410000000  0.4673250000000  0.4927100000000 1.0
C      1  0.5735540000000  0.5326000000000  0.5074750000000 1.0
C      1  0.4675080000000  0.4926630000000  0.5734470000000 1.0
C      1  0.5321740000000  0.5075540000000  0.5733870000000 1.0
C      1  0.5320520000000  0.4923620000000  0.4269210000000 1.0
C      1  0.5076350000000  0.4680480000000  0.4271150000000 1.0
C      1  0.4266940000000  0.5077320000000  0.4678130000000 1.0
C      1  0.4683150000000  0.4266670000000  0.5076580000000 1.0
C      1  0.5076680000000  0.5319950000000  0.5732370000000 1.0
C      1  0.4923540000000  0.5321100000000  0.4273370000000 1.0
C      1  0.4927970000000  0.4672770000000  0.5735370000000 1.0
C      1  0.4268060000000  0.4926550000000  0.5324650000000 1.0
C      1  0.5735000000000  0.4925820000000  0.4672280000000 1.0
C      1  0.5741250000000  0.5073760000000  0.5331260000000 1.0
C      1  0.4675460000000  0.5736950000000  0.4923650000000 1.0
C      1  0.5326910000000  0.5733820000000  0.5072840000000 1.0
C      1  0.5321450000000  0.4264400000000  0.4923310000000 1.0
C      1  0.5227970000000  0.5398430000000  0.5232450000000 1.0
C      1  0.5415860000000  0.5235810000000  0.5237790000000 1.0
C      1  0.5247760000000  0.5239280000000  0.5420060000000 1.0
C      1  0.5241030000000  0.4580740000000  0.4757780000000 1.0
C      1  0.4834220000000  0.5337610000000  0.4686390000000 1.0
C      1  0.4759570000000  0.4581340000000  0.5244730000000 1.0
C      1  0.5403090000000  0.4768230000000  0.4780390000000 1.0
C      1  0.4633400000000  0.5364990000000  0.4804880000000 1.0
C      1  0.4600420000000  0.4769340000000  0.5223380000000 1.0
C      1  0.5249260000000  0.4752970000000  0.4586800000000 1.0
C      1  0.4649280000000  0.5193250000000  0.4652310000000 1.0
C      1  0.4765420000000  0.4764250000000  0.5406850000000 1.0
C      1  0.5160830000000  0.5312100000000  0.5331170000000 1.0
C      1  0.5363050000000  0.5195010000000  0.5358810000000 1.0
C      1  0.5344620000000  0.5343550000000  0.5185960000000 1.0
C      1  0.5200010000000  0.4636800000000  0.4641060000000 1.0
C      1  0.4809940000000  0.4644010000000  0.5356250000000 1.0
C      1  0.4765340000000  0.5241540000000  0.4599020000000 1.0
C      1  0.5356080000000  0.4806770000000  0.4657980000000 1.0
C      1  0.4656840000000  0.4816450000000  0.5338970000000 1.0
C      1  0.4580050000000  0.5245270000000  0.4760690000000 1.0
C      1  0.5310920000000  0.4670840000000  0.4845120000000 1.0
C      1  0.4687780000000  0.4670090000000  0.5157770000000 1.0
C      1  0.4748890000000  0.5425660000000  0.4760580000000 1.0
C      1  0.4847340000000  0.5070030000000  0.5332870000000 1.0
C      1  0.5045840000000  0.5378230000000  0.4828620000000 1.0
C      1  0.5319870000000  0.4837310000000  0.5076720000000 1.0
C      1  0.4838140000000  0.4922710000000  0.4669930000000 1.0
C      1  0.5162010000000  0.5046410000000  0.4623740000000 1.0
C      1  0.5162490000000  0.4955530000000  0.5374470000000 1.0
C      1  0.5049770000000  0.4620850000000  0.5156580000000 1.0
C      1  0.4908560000000  0.5331300000000  0.5159800000000 1.0
C      1  0.4925830000000  0.4661850000000  0.4837800000000 1.0
C      1  0.5329030000000  0.5161790000000  0.4943350000000 1.0
C      1  0.4672860000000  0.4839440000000  0.4916970000000 1.0
C      1  0.4672160000000  0.5173100000000  0.5067200000000 1.0
C      1  0.4831970000000  0.5377650000000  0.5040590000000 1.0
C      1  0.5082710000000  0.4837240000000  0.5327850000000 1.0
C      1  0.5321860000000  0.5069590000000  0.4839490000000 1.0
C      1  0.4834990000000  0.4621210000000  0.4949560000000 1.0
C      1  0.5160660000000  0.4615350000000  0.5046360000000 1.0
C      1  0.5149540000000  0.5333660000000  0.4925110000000 1.0
C      1  0.5053570000000  0.5156880000000  0.4624940000000 1.0
C      1  0.4950590000000  0.5169820000000  0.5377630000000 1.0
C      1  0.4949970000000  0.4833280000000  0.4628990000000 1.0
C      1  0.5328570000000  0.4938180000000  0.5170250000000 1.0
C      1  0.4629000000000  0.4957520000000  0.4838330000000 1.0
C      1  0.4672360000000  0.5067610000000  0.5156700000000 1.0
C      1  0.5329150000000  0.5435060000000  0.4468110000000 1.0
C      1  0.5433630000000  0.4466590000000  0.5329180000000 1.0
C      1  0.4470930000000  0.5325450000000  0.5428730000000 1.0
C      1  0.5326920000000  0.4566420000000  0.5531860000000 1.0
C      1  0.4672410000000  0.5434660000000  0.5532460000000 1.0
C      1  0.4675890000000  0.4566400000000  0.4467370000000 1.0
C      1  0.5432990000000  0.5531470000000  0.4673420000000 1.0
C      1  0.4569090000000  0.4465650000000  0.4671500000000 1.0
C      1  0.4566960000000  0.5532040000000  0.5326530000000 1.0
C      1  0.4471250000000  0.4671250000000  0.4567250000000 1.0
C      1  0.5530160000000  0.5325960000000  0.4568940000000 1.0
C      1  0.5530850000000  0.4672060000000  0.5434500000000 1.0
C      1  0.5327050000000  0.4467420000000  0.5434330000000 1.0
C      1  0.5433320000000  0.5327890000000  0.4469450000000 1.0
C      1  0.4469700000000  0.5432470000000  0.5323510000000 1.0
C      1  0.5328290000000  0.5533810000000  0.4565980000000 1.0
C      1  0.4671040000000  0.5532940000000  0.5434180000000 1.0
C      1  0.4674700000000  0.4467080000000  0.4565010000000 1.0
C      1  0.5432010000000  0.4673230000000  0.5532270000000 1.0
C      1  0.4569800000000  0.4671960000000  0.4469280000000 1.0
C      1  0.4567530000000  0.5327350000000  0.5528790000000 1.0
C      1  0.4471040000000  0.4564240000000  0.4672190000000 1.0
C      1  0.5531180000000  0.4565390000000  0.5328450000000 1.0
C      1  0.5530170000000  0.5432070000000  0.4675770000000 1.0
C      1  0.4281300000000  0.4676210000000  0.5218790000000 1.0
C      1  0.4673150000000  0.5221930000000  0.4275970000000 1.0
C      1  0.5221660000000  0.4267370000000  0.4670220000000 1.0
C      1  0.4268800000000  0.5329620000000  0.4777860000000 1.0
C      1  0.5719190000000  0.4676670000000  0.4779700000000 1.0
C      1  0.5727540000000  0.5323140000000  0.5222470000000 1.0
C      1  0.4678860000000  0.4779370000000  0.5724580000000 1.0
C      1  0.5327500000000  0.5221930000000  0.5730330000000 1.0
C      1  0.5325290000000  0.4777130000000  0.4271500000000 1.0
C      1  0.5220580000000  0.5719850000000  0.5322140000000 1.0
C      1  0.4780540000000  0.4269580000000  0.5327470000000 1.0
C      1  0.4773790000000  0.5731910000000  0.4674440000000 1.0
C      1  0.4270530000000  0.5224670000000  0.4676060000000 1.0
C      1  0.4678140000000  0.4270400000000  0.5223210000000 1.0
C      1  0.5222320000000  0.4674060000000  0.4273160000000 1.0
C      1  0.4279440000000  0.4779320000000  0.5321120000000 1.0
C      1  0.5722000000000  0.4778590000000  0.4675890000000 1.0
C      1  0.5727610000000  0.5220870000000  0.5326860000000 1.0
C      1  0.4669480000000  0.5732560000000  0.4777100000000 1.0
C      1  0.5323390000000  0.5722320000000  0.5219970000000 1.0
C      1  0.5323070000000  0.4269830000000  0.4775650000000 1.0
C      1  0.5223360000000  0.5324550000000  0.5729210000000 1.0
C      1  0.4776700000000  0.5323320000000  0.4279620000000 1.0
C      1  0.4781200000000  0.4676270000000  0.5723750000000 1.0
C      1  0.4840330000000  0.5164030000000  0.4510390000000 1.0
C      1  0.5163450000000  0.4494290000000  0.4836440000000 1.0
C      1  0.4508660000000  0.4848180000000  0.5149580000000 1.0
C      1  0.4842490000000  0.4842060000000  0.5496020000000 1.0
C      1  0.5165350000000  0.4833770000000  0.4504700000000 1.0
C      1  0.5153120000000  0.5490660000000  0.5156340000000 1.0
C      1  0.4838910000000  0.4497120000000  0.5162120000000 1.0
C      1  0.4835430000000  0.5506720000000  0.4839740000000 1.0
C      1  0.4495100000000  0.5161160000000  0.4838500000000 1.0
C      1  0.5494440000000  0.4848980000000  0.4854750000000 1.0
C      1  0.5504140000000  0.5156610000000  0.5157310000000 1.0
C      1  0.5162570000000  0.5159620000000  0.5502840000000 1.0
END
