TITL C-1887016-2763-87 4.4172009284463e-07 1000000 -3102.82005388207 0 0 440 (Th) n - 1
REM
REM in /nfs/bkarasulu/CARBON/AIRSS/Generating-Clusters/GAP-ML-2020/Higher-Symm/Selected-Sizes/TryA-Only_Ih-Symm/Larger-Clusters
REM
REM
REM
REM
REM
REM ./C.cell (2cf5181f0f1d4d5b12b972d32ad12063)
REM
REM compiler GCC version 9.2.1 20190827 (Red Hat 9.2.1-1)
REM options -cpp -mtune=generic -march=x86-64 -g -O0 -fpre-include=/usr/include/finclude/math-vector-fortran.h
REM seed 1562899351 641605771 -1533098019 397275850 990499202 1777811002 -1447860692 -1331253873 -268290510 -2099910429 -1461521534 1982263864 -336381420 -1525291140 88184656 107844312 71217222 2137542377 -665288733 1330754212 1761199629 -1996852523 563647071 -1008287127 1721184840 -802239371 -955103072 63486381 1676512805 233771582 1428767801 1921505367 1765815788
REM
CELL 1.54180  100.00000  100.00000  100.00000   90.00000   90.00000   90.00000
LATT -1
SFAC C  
C      1  0.4564880000000  0.5074290000000  0.4918810000000 1.0
C      1  0.5076600000000  0.4918360000000  0.4563030000000 1.0
C      1  0.4920660000000  0.4562580000000  0.5074740000000 1.0
C      1  0.5436020000000  0.4922000000000  0.4918810000000 1.0
C      1  0.4564880000000  0.4922000000000  0.5078390000000 1.0
C      1  0.5436020000000  0.5074290000000  0.5078390000000 1.0
C      1  0.4924310000000  0.5077930000000  0.4563030000000 1.0
C      1  0.5076600000000  0.5077930000000  0.5434170000000 1.0
C      1  0.4924310000000  0.4918360000000  0.5434170000000 1.0
C      1  0.5080240000000  0.5433720000000  0.5074740000000 1.0
C      1  0.4920660000000  0.5433720000000  0.4922450000000 1.0
C      1  0.5080240000000  0.4562580000000  0.4922450000000 1.0
C      1  0.4564880000000  0.5074290000000  0.5078390000000 1.0
C      1  0.5076600000000  0.4918360000000  0.5434170000000 1.0
C      1  0.4920660000000  0.4562580000000  0.4922450000000 1.0
C      1  0.5436020000000  0.4922000000000  0.5078390000000 1.0
C      1  0.4564880000000  0.4922000000000  0.4918810000000 1.0
C      1  0.5436020000000  0.5074290000000  0.4918810000000 1.0
C      1  0.4924310000000  0.5077930000000  0.5434170000000 1.0
C      1  0.5076600000000  0.5077930000000  0.4563030000000 1.0
C      1  0.4924310000000  0.4918360000000  0.4563030000000 1.0
C      1  0.5080240000000  0.5433720000000  0.4922450000000 1.0
C      1  0.4920660000000  0.5433720000000  0.5074740000000 1.0
C      1  0.5080240000000  0.4562580000000  0.5074740000000 1.0
C      1  0.4929630000000  0.5605390000000  0.4558760000000 1.0
C      1  0.5607700000000  0.4558310000000  0.4927780000000 1.0
C      1  0.4560610000000  0.4927330000000  0.5605840000000 1.0
C      1  0.5071270000000  0.4390900000000  0.4558760000000 1.0
C      1  0.4929630000000  0.4390900000000  0.5438430000000 1.0
C      1  0.5071270000000  0.5605390000000  0.5438440000000 1.0
C      1  0.4393210000000  0.5437980000000  0.4927780000000 1.0
C      1  0.5607700000000  0.5437980000000  0.5069420000000 1.0
C      1  0.4393210000000  0.4558310000000  0.5069420000000 1.0
C      1  0.5440290000000  0.5068960000000  0.5605840000000 1.0
C      1  0.4560610000000  0.5068960000000  0.4391350000000 1.0
C      1  0.5440290000000  0.4927330000000  0.4391350000000 1.0
C      1  0.4929630000000  0.5605390000000  0.5438440000000 1.0
C      1  0.5607700000000  0.4558310000000  0.5069420000000 1.0
C      1  0.4560610000000  0.4927330000000  0.4391350000000 1.0
C      1  0.5071270000000  0.4390900000000  0.5438430000000 1.0
C      1  0.4929630000000  0.4390900000000  0.4558760000000 1.0
C      1  0.5071270000000  0.5605390000000  0.4558760000000 1.0
C      1  0.4393210000000  0.5437980000000  0.5069420000000 1.0
C      1  0.5607700000000  0.5437980000000  0.4927780000000 1.0
C      1  0.4393210000000  0.4558310000000  0.4927780000000 1.0
C      1  0.5440290000000  0.5068960000000  0.4391350000000 1.0
C      1  0.4560610000000  0.5068960000000  0.5605840000000 1.0
C      1  0.5440290000000  0.4927330000000  0.5605840000000 1.0
C      1  0.5075680000000  0.4834980000000  0.5844720000000 1.0
C      1  0.4837290000000  0.5844270000000  0.5073830000000 1.0
C      1  0.5846570000000  0.5073380000000  0.4835430000000 1.0
C      1  0.4925220000000  0.5161310000000  0.5844720000000 1.0
C      1  0.5075680000000  0.5161310000000  0.4152480000000 1.0
C      1  0.4925220000000  0.4834980000000  0.4152480000000 1.0
C      1  0.5163620000000  0.4152020000000  0.5073830000000 1.0
C      1  0.4837290000000  0.4152020000000  0.4923370000000 1.0
C      1  0.5163620000000  0.5844270000000  0.4923370000000 1.0
C      1  0.4154330000000  0.4922920000000  0.4835430000000 1.0
C      1  0.5846570000000  0.4922920000000  0.5161760000000 1.0
C      1  0.4154330000000  0.5073370000000  0.5161760000000 1.0
C      1  0.5075680000000  0.4834980000000  0.4152480000000 1.0
C      1  0.4837290000000  0.5844270000000  0.4923370000000 1.0
C      1  0.5846570000000  0.5073370000000  0.5161760000000 1.0
C      1  0.4925220000000  0.5161310000000  0.4152480000000 1.0
C      1  0.5075680000000  0.5161310000000  0.5844720000000 1.0
C      1  0.4925220000000  0.4834980000000  0.5844720000000 1.0
C      1  0.5163620000000  0.4152020000000  0.4923370000000 1.0
C      1  0.4837290000000  0.4152020000000  0.5073830000000 1.0
C      1  0.5163620000000  0.5844270000000  0.5073830000000 1.0
C      1  0.4154330000000  0.4922920000000  0.5161760000000 1.0
C      1  0.5846570000000  0.4922920000000  0.4835430000000 1.0
C      1  0.4154330000000  0.5073370000000  0.4835430000000 1.0
C      1  0.5469850000000  0.4549820000000  0.5143450000000 1.0
C      1  0.4552130000000  0.5143000000000  0.5468000000000 1.0
C      1  0.5145300000000  0.5467540000000  0.4550270000000 1.0
C      1  0.4531050000000  0.5446470000000  0.5143450000000 1.0
C      1  0.5469850000000  0.5446470000000  0.4853750000000 1.0
C      1  0.4531050000000  0.4549820000000  0.4853750000000 1.0
C      1  0.5448780000000  0.4853300000000  0.5468000000000 1.0
C      1  0.4552130000000  0.4853300000000  0.4529200000000 1.0
C      1  0.5448780000000  0.5143000000000  0.4529200000000 1.0
C      1  0.4855600000000  0.4528750000000  0.4550270000000 1.0
C      1  0.5145300000000  0.4528750000000  0.5446920000000 1.0
C      1  0.4855600000000  0.5467550000000  0.5446920000000 1.0
C      1  0.5469850000000  0.4549820000000  0.4853750000000 1.0
C      1  0.4552130000000  0.5143000000000  0.4529200000000 1.0
C      1  0.5145300000000  0.5467550000000  0.5446920000000 1.0
C      1  0.4531050000000  0.5446470000000  0.4853750000000 1.0
C      1  0.5469850000000  0.5446470000000  0.5143450000000 1.0
C      1  0.4531050000000  0.4549820000000  0.5143450000000 1.0
C      1  0.5448780000000  0.4853300000000  0.4529200000000 1.0
C      1  0.4552130000000  0.4853300000000  0.5468000000000 1.0
C      1  0.5448780000000  0.5143000000000  0.5468000000000 1.0
C      1  0.4855600000000  0.4528750000000  0.5446920000000 1.0
C      1  0.5145300000000  0.4528750000000  0.4550270000000 1.0
C      1  0.4855600000000  0.5467540000000  0.4550270000000 1.0
C      1  0.5871940000000  0.4820330000000  0.4924360000000 1.0
C      1  0.4822640000000  0.4923910000000  0.5870080000000 1.0
C      1  0.4926220000000  0.5869630000000  0.4820780000000 1.0
C      1  0.4128960000000  0.5175960000000  0.4924360000000 1.0
C      1  0.5871940000000  0.5175960000000  0.5072830000000 1.0
C      1  0.4128970000000  0.4820330000000  0.5072830000000 1.0
C      1  0.5178260000000  0.5072380000000  0.5870090000000 1.0
C      1  0.4822640000000  0.5072380000000  0.4127110000000 1.0
C      1  0.5178260000000  0.4923910000000  0.4127110000000 1.0
C      1  0.5074690000000  0.4126660000000  0.4820780000000 1.0
C      1  0.4926220000000  0.4126660000000  0.5176410000000 1.0
C      1  0.5074690000000  0.5869630000000  0.5176410000000 1.0
C      1  0.5871940000000  0.4820330000000  0.5072830000000 1.0
C      1  0.4822640000000  0.4923910000000  0.4127110000000 1.0
C      1  0.4926220000000  0.5869630000000  0.5176410000000 1.0
C      1  0.4128960000000  0.5175960000000  0.5072830000000 1.0
C      1  0.5871940000000  0.5175960000000  0.4924360000000 1.0
C      1  0.4128970000000  0.4820330000000  0.4924360000000 1.0
C      1  0.5178260000000  0.5072380000000  0.4127110000000 1.0
C      1  0.4822640000000  0.5072380000000  0.5870090000000 1.0
C      1  0.5178260000000  0.4923910000000  0.5870090000000 1.0
C      1  0.5074690000000  0.4126660000000  0.5176410000000 1.0
C      1  0.4926220000000  0.4126660000000  0.4820790000000 1.0
C      1  0.5074690000000  0.5869630000000  0.4820780000000 1.0
C      1  0.4853890000000  0.4291330000000  0.5366800000000 1.0
C      1  0.4293630000000  0.5366350000000  0.4852030000000 1.0
C      1  0.5368650000000  0.4851580000000  0.4291780000000 1.0
C      1  0.5147020000000  0.5704960000000  0.5366800000000 1.0
C      1  0.4853890000000  0.5704960000000  0.4630400000000 1.0
C      1  0.5147020000000  0.4291330000000  0.4630400000000 1.0
C      1  0.5707270000000  0.4629950000000  0.4852030000000 1.0
C      1  0.4293640000000  0.4629950000000  0.5145160000000 1.0
C      1  0.5707270000000  0.5366350000000  0.5145160000000 1.0
C      1  0.4632250000000  0.5144710000000  0.4291780000000 1.0
C      1  0.5368650000000  0.5144710000000  0.5705410000000 1.0
C      1  0.4632250000000  0.4851580000000  0.5705420000000 1.0
C      1  0.4853890000000  0.4291330000000  0.4630400000000 1.0
C      1  0.4293630000000  0.5366350000000  0.5145160000000 1.0
C      1  0.5368650000000  0.4851580000000  0.5705410000000 1.0
C      1  0.5147020000000  0.5704960000000  0.4630400000000 1.0
C      1  0.4853890000000  0.5704960000000  0.5366800000000 1.0
C      1  0.5147020000000  0.4291330000000  0.5366800000000 1.0
C      1  0.5707270000000  0.4629950000000  0.5145160000000 1.0
C      1  0.4293640000000  0.4629950000000  0.4852030000000 1.0
C      1  0.5707270000000  0.5366350000000  0.4852030000000 1.0
C      1  0.4632250000000  0.5144710000000  0.5705420000000 1.0
C      1  0.5368650000000  0.5144710000000  0.4291780000000 1.0
C      1  0.4632250000000  0.4851580000000  0.4291780000000 1.0
C      1  0.5432200000000  0.5300840000000  0.4862350000000 1.0
C      1  0.5303140000000  0.4861900000000  0.5430340000000 1.0
C      1  0.4864200000000  0.5429890000000  0.5301290000000 1.0
C      1  0.4568710000000  0.4695460000000  0.4862350000000 1.0
C      1  0.5432200000000  0.4695460000000  0.5134850000000 1.0
C      1  0.4568710000000  0.5300840000000  0.5134850000000 1.0
C      1  0.4697760000000  0.5134400000000  0.5430340000000 1.0
C      1  0.5303140000000  0.5134400000000  0.4566850000000 1.0
C      1  0.4697760000000  0.4861900000000  0.4566850000000 1.0
C      1  0.5136700000000  0.4566400000000  0.5301290000000 1.0
C      1  0.4864200000000  0.4566400000000  0.4695910000000 1.0
C      1  0.5136700000000  0.5429890000000  0.4695910000000 1.0
C      1  0.5432200000000  0.5300840000000  0.5134850000000 1.0
C      1  0.5303140000000  0.4861900000000  0.4566850000000 1.0
C      1  0.4864200000000  0.5429890000000  0.4695910000000 1.0
C      1  0.4568710000000  0.4695460000000  0.5134850000000 1.0
C      1  0.5432200000000  0.4695460000000  0.4862350000000 1.0
C      1  0.4568710000000  0.5300840000000  0.4862350000000 1.0
C      1  0.4697760000000  0.5134400000000  0.4566850000000 1.0
C      1  0.5303140000000  0.5134400000000  0.5430340000000 1.0
C      1  0.4697760000000  0.4861900000000  0.5430340000000 1.0
C      1  0.5136700000000  0.4566400000000  0.4695910000000 1.0
C      1  0.4864200000000  0.4566400000000  0.5301290000000 1.0
C      1  0.5136700000000  0.5429890000000  0.5301290000000 1.0
C      1  0.5183570000000  0.5138720000000  0.4482900000000 1.0
C      1  0.5141030000000  0.4482450000000  0.5181710000000 1.0
C      1  0.4484750000000  0.5181260000000  0.5139180000000 1.0
C      1  0.4817340000000  0.4857570000000  0.4482900000000 1.0
C      1  0.5183570000000  0.4857570000000  0.5514300000000 1.0
C      1  0.4817340000000  0.5138720000000  0.5514300000000 1.0
C      1  0.4859870000000  0.5513850000000  0.5181710000000 1.0
C      1  0.5141030000000  0.5513850000000  0.4815480000000 1.0
C      1  0.4859870000000  0.4482450000000  0.4815480000000 1.0
C      1  0.5516150000000  0.4815030000000  0.5139180000000 1.0
C      1  0.4484750000000  0.4815030000000  0.4858020000000 1.0
C      1  0.5516150000000  0.5181260000000  0.4858020000000 1.0
C      1  0.5183570000000  0.5138720000000  0.5514300000000 1.0
C      1  0.5141030000000  0.4482450000000  0.4815480000000 1.0
C      1  0.4484750000000  0.5181260000000  0.4858020000000 1.0
C      1  0.4817340000000  0.4857570000000  0.5514300000000 1.0
C      1  0.5183570000000  0.4857570000000  0.4482900000000 1.0
C      1  0.4817340000000  0.5138720000000  0.4482900000000 1.0
C      1  0.4859870000000  0.5513850000000  0.4815480000000 1.0
C      1  0.5141030000000  0.5513850000000  0.5181710000000 1.0
C      1  0.4859870000000  0.4482450000000  0.5181710000000 1.0
C      1  0.5516150000000  0.4815030000000  0.4858020000000 1.0
C      1  0.4484750000000  0.4815030000000  0.5139180000000 1.0
C      1  0.5516150000000  0.5181260000000  0.5139180000000 1.0
C      1  0.5295510000000  0.5266650000000  0.4911730000000 1.0
C      1  0.5268950000000  0.4911280000000  0.5293660000000 1.0
C      1  0.4913590000000  0.5293210000000  0.5267100000000 1.0
C      1  0.4705390000000  0.4729640000000  0.4911730000000 1.0
C      1  0.5295510000000  0.4729640000000  0.5085460000000 1.0
C      1  0.4705390000000  0.5266650000000  0.5085460000000 1.0
C      1  0.4731950000000  0.5085010000000  0.5293660000000 1.0
C      1  0.5268950000000  0.5085010000000  0.4703540000000 1.0
C      1  0.4731950000000  0.4911280000000  0.4703540000000 1.0
C      1  0.5087320000000  0.4703090000000  0.5267100000000 1.0
C      1  0.4913590000000  0.4703090000000  0.4730100000000 1.0
C      1  0.5087320000000  0.5293200000000  0.4730100000000 1.0
C      1  0.5295510000000  0.5266650000000  0.5085460000000 1.0
C      1  0.5268950000000  0.4911280000000  0.4703540000000 1.0
C      1  0.4913590000000  0.5293200000000  0.4730100000000 1.0
C      1  0.4705390000000  0.4729640000000  0.5085460000000 1.0
C      1  0.5295510000000  0.4729640000000  0.4911730000000 1.0
C      1  0.4705390000000  0.5266650000000  0.4911730000000 1.0
C      1  0.4731950000000  0.5085010000000  0.4703540000000 1.0
C      1  0.5268950000000  0.5085010000000  0.5293660000000 1.0
C      1  0.4731950000000  0.4911280000000  0.5293660000000 1.0
C      1  0.5087320000000  0.4703090000000  0.4730100000000 1.0
C      1  0.4913590000000  0.4703090000000  0.5267100000000 1.0
C      1  0.5087320000000  0.5293200000000  0.5267100000000 1.0
C      1  0.5311290000000  0.4925560000000  0.5808130000000 1.0
C      1  0.4927870000000  0.5807680000000  0.5309440000000 1.0
C      1  0.5809990000000  0.5308990000000  0.4926010000000 1.0
C      1  0.4689610000000  0.5070730000000  0.5808130000000 1.0
C      1  0.5311290000000  0.5070730000000  0.4189060000000 1.0
C      1  0.4689610000000  0.4925560000000  0.4189060000000 1.0
C      1  0.5073040000000  0.4188610000000  0.5309440000000 1.0
C      1  0.4927870000000  0.4188610000000  0.4687760000000 1.0
C      1  0.5073040000000  0.5807680000000  0.4687760000000 1.0
C      1  0.4190920000000  0.4687310000000  0.4926010000000 1.0
C      1  0.5809990000000  0.4687310000000  0.5071180000000 1.0
C      1  0.4190920000000  0.5308990000000  0.5071180000000 1.0
C      1  0.5311290000000  0.4925560000000  0.4189060000000 1.0
C      1  0.4927870000000  0.5807680000000  0.4687760000000 1.0
C      1  0.5809990000000  0.5308990000000  0.5071180000000 1.0
C      1  0.4689610000000  0.5070730000000  0.4189060000000 1.0
C      1  0.5311290000000  0.5070730000000  0.5808130000000 1.0
C      1  0.4689610000000  0.4925560000000  0.5808140000000 1.0
C      1  0.5073040000000  0.4188610000000  0.4687760000000 1.0
C      1  0.4927870000000  0.4188610000000  0.5309440000000 1.0
C      1  0.5073040000000  0.5807680000000  0.5309440000000 1.0
C      1  0.4190920000000  0.4687310000000  0.5071180000000 1.0
C      1  0.5809990000000  0.4687310000000  0.4926010000000 1.0
C      1  0.4190920000000  0.5308990000000  0.4926010000000 1.0
C      1  0.4874640000000  0.5137780000000  0.4695220000000 1.0
C      1  0.5140090000000  0.4694770000000  0.4872790000000 1.0
C      1  0.4697070000000  0.4872340000000  0.5138230000000 1.0
C      1  0.5126260000000  0.4858510000000  0.4695220000000 1.0
C      1  0.4874640000000  0.4858510000000  0.5301980000000 1.0
C      1  0.5126260000000  0.5137780000000  0.5301980000000 1.0
C      1  0.4860820000000  0.5301530000000  0.4872790000000 1.0
C      1  0.5140090000000  0.5301530000000  0.5124410000000 1.0
C      1  0.4860820000000  0.4694770000000  0.5124410000000 1.0
C      1  0.5303830000000  0.5123960000000  0.5138230000000 1.0
C      1  0.4697070000000  0.5123960000000  0.4858960000000 1.0
C      1  0.5303830000000  0.4872340000000  0.4858960000000 1.0
C      1  0.4874640000000  0.5137780000000  0.5301980000000 1.0
C      1  0.5140090000000  0.4694770000000  0.5124410000000 1.0
C      1  0.4697070000000  0.4872340000000  0.4858960000000 1.0
C      1  0.5126260000000  0.4858510000000  0.5301980000000 1.0
C      1  0.4874640000000  0.4858510000000  0.4695220000000 1.0
C      1  0.5126260000000  0.5137780000000  0.4695220000000 1.0
C      1  0.4860820000000  0.5301530000000  0.5124410000000 1.0
C      1  0.5140090000000  0.5301530000000  0.4872790000000 1.0
C      1  0.4860820000000  0.4694770000000  0.4872790000000 1.0
C      1  0.5303830000000  0.5123950000000  0.4858960000000 1.0
C      1  0.4697070000000  0.5123960000000  0.5138230000000 1.0
C      1  0.5303830000000  0.4872340000000  0.5138230000000 1.0
C      1  0.4924660000000  0.4815710000000  0.5072910000000 1.0
C      1  0.4818020000000  0.5072460000000  0.4922810000000 1.0
C      1  0.5074770000000  0.4922360000000  0.4816160000000 1.0
C      1  0.5076240000000  0.5180580000000  0.5072910000000 1.0
C      1  0.4924660000000  0.5180580000000  0.4924280000000 1.0
C      1  0.5076240000000  0.4815710000000  0.4924280000000 1.0
C      1  0.5182890000000  0.4923830000000  0.4922810000000 1.0
C      1  0.4818020000000  0.4923830000000  0.5074390000000 1.0
C      1  0.5182890000000  0.5072460000000  0.5074390000000 1.0
C      1  0.4926140000000  0.5073940000000  0.4816160000000 1.0
C      1  0.5074770000000  0.5073940000000  0.5181030000000 1.0
C      1  0.4926140000000  0.4922360000000  0.5181030000000 1.0
C      1  0.4924660000000  0.4815710000000  0.4924280000000 1.0
C      1  0.4818020000000  0.5072460000000  0.5074390000000 1.0
C      1  0.5074770000000  0.4922360000000  0.5181030000000 1.0
C      1  0.5076240000000  0.5180580000000  0.4924280000000 1.0
C      1  0.4924660000000  0.5180580000000  0.5072910000000 1.0
C      1  0.5076240000000  0.4815710000000  0.5072910000000 1.0
C      1  0.5182890000000  0.4923830000000  0.5074390000000 1.0
C      1  0.4818020000000  0.4923830000000  0.4922810000000 1.0
C      1  0.5182890000000  0.5072460000000  0.4922810000000 1.0
C      1  0.4926140000000  0.5073940000000  0.5181030000000 1.0
C      1  0.5074770000000  0.5073940000000  0.4816160000000 1.0
C      1  0.4926140000000  0.4922360000000  0.4816160000000 1.0
C      1  0.5378400000000  0.4387740000000  0.5305210000000 1.0
C      1  0.4390050000000  0.5304760000000  0.5376540000000 1.0
C      1  0.5307070000000  0.5376090000000  0.4388190000000 1.0
C      1  0.4622510000000  0.5608550000000  0.5305210000000 1.0
C      1  0.5378400000000  0.5608550000000  0.4691980000000 1.0
C      1  0.4622510000000  0.4387740000000  0.4691980000000 1.0
C      1  0.5610860000000  0.4691530000000  0.5376540000000 1.0
C      1  0.4390050000000  0.4691530000000  0.4620650000000 1.0
C      1  0.5610860000000  0.5304760000000  0.4620650000000 1.0
C      1  0.4693840000000  0.4620200000000  0.4388190000000 1.0
C      1  0.5307070000000  0.4620200000000  0.5609000000000 1.0
C      1  0.4693840000000  0.5376090000000  0.5609000000000 1.0
C      1  0.5378400000000  0.4387740000000  0.4691980000000 1.0
C      1  0.4390050000000  0.5304760000000  0.4620650000000 1.0
C      1  0.5307070000000  0.5376090000000  0.5609000000000 1.0
C      1  0.4622510000000  0.5608550000000  0.4691980000000 1.0
C      1  0.5378400000000  0.5608550000000  0.5305210000000 1.0
C      1  0.4622510000000  0.4387740000000  0.5305220000000 1.0
C      1  0.5610860000000  0.4691530000000  0.4620650000000 1.0
C      1  0.4390050000000  0.4691530000000  0.5376540000000 1.0
C      1  0.5610860000000  0.5304760000000  0.5376540000000 1.0
C      1  0.4693840000000  0.4620200000000  0.5609000000000 1.0
C      1  0.5307070000000  0.4620200000000  0.4388190000000 1.0
C      1  0.4693840000000  0.5376090000000  0.4388190000000 1.0
C      1  0.4704730000000  0.5442550000000  0.4505700000000 1.0
C      1  0.5444850000000  0.4505250000000  0.4702880000000 1.0
C      1  0.4507550000000  0.4702420000000  0.5443000000000 1.0
C      1  0.5296170000000  0.4553740000000  0.4505700000000 1.0
C      1  0.4704730000000  0.4553750000000  0.5491500000000 1.0
C      1  0.5296170000000  0.5442550000000  0.5491500000000 1.0
C      1  0.4556050000000  0.5491050000000  0.4702880000000 1.0
C      1  0.5444850000000  0.5491050000000  0.5294320000000 1.0
C      1  0.4556050000000  0.4505250000000  0.5294320000000 1.0
C      1  0.5493350000000  0.5293870000000  0.5443000000000 1.0
C      1  0.4507550000000  0.5293870000000  0.4554200000000 1.0
C      1  0.5493350000000  0.4702420000000  0.4554200000000 1.0
C      1  0.4704730000000  0.5442550000000  0.5491500000000 1.0
C      1  0.5444850000000  0.4505250000000  0.5294320000000 1.0
C      1  0.4507550000000  0.4702420000000  0.4554200000000 1.0
C      1  0.5296170000000  0.4553740000000  0.5491500000000 1.0
C      1  0.4704730000000  0.4553750000000  0.4505700000000 1.0
C      1  0.5296170000000  0.5442550000000  0.4505700000000 1.0
C      1  0.4556050000000  0.5491050000000  0.5294320000000 1.0
C      1  0.5444850000000  0.5491050000000  0.4702880000000 1.0
C      1  0.4556050000000  0.4505250000000  0.4702880000000 1.0
C      1  0.5493350000000  0.5293870000000  0.4554200000000 1.0
C      1  0.4507550000000  0.5293870000000  0.5443000000000 1.0
C      1  0.5493350000000  0.4702420000000  0.5443000000000 1.0
C      1  0.5372710000000  0.4461520000000  0.5068780000000 1.0
C      1  0.4463830000000  0.5068330000000  0.5370860000000 1.0
C      1  0.5070630000000  0.5370400000000  0.4461980000000 1.0
C      1  0.4628190000000  0.5534770000000  0.5068780000000 1.0
C      1  0.5372710000000  0.5534770000000  0.4928420000000 1.0
C      1  0.4628200000000  0.4461520000000  0.4928420000000 1.0
C      1  0.5537070000000  0.4927960000000  0.5370860000000 1.0
C      1  0.4463830000000  0.4927960000000  0.4626340000000 1.0
C      1  0.5537070000000  0.5068330000000  0.4626340000000 1.0
C      1  0.4930270000000  0.4625890000000  0.4461980000000 1.0
C      1  0.5070640000000  0.4625890000000  0.5535220000000 1.0
C      1  0.4930270000000  0.5370400000000  0.5535220000000 1.0
C      1  0.5372710000000  0.4461520000000  0.4928420000000 1.0
C      1  0.4463830000000  0.5068330000000  0.4626340000000 1.0
C      1  0.5070630000000  0.5370400000000  0.5535220000000 1.0
C      1  0.4628190000000  0.5534770000000  0.4928420000000 1.0
C      1  0.5372710000000  0.5534770000000  0.5068780000000 1.0
C      1  0.4628200000000  0.4461520000000  0.5068780000000 1.0
C      1  0.5537070000000  0.4927960000000  0.4626340000000 1.0
C      1  0.4463830000000  0.4927960000000  0.5370860000000 1.0
C      1  0.5537070000000  0.5068330000000  0.5370860000000 1.0
C      1  0.4930270000000  0.4625890000000  0.5535220000000 1.0
C      1  0.5070640000000  0.4625890000000  0.4461980000000 1.0
C      1  0.4930270000000  0.5370400000000  0.4461980000000 1.0
C      1  0.5607810000000  0.4847900000000  0.4737900000000 1.0
C      1  0.4850210000000  0.4737450000000  0.5605960000000 1.0
C      1  0.4739760000000  0.5605510000000  0.4848360000000 1.0
C      1  0.4393090000000  0.5148390000000  0.4737900000000 1.0
C      1  0.5607810000000  0.5148390000000  0.5259290000000 1.0
C      1  0.4393090000000  0.4847900000000  0.5259290000000 1.0
C      1  0.5150690000000  0.5258840000000  0.5605960000000 1.0
C      1  0.4850210000000  0.5258840000000  0.4391240000000 1.0
C      1  0.5150690000000  0.4737450000000  0.4391240000000 1.0
C      1  0.5261150000000  0.4390780000000  0.4848360000000 1.0
C      1  0.4739760000000  0.4390780000000  0.5148840000000 1.0
C      1  0.5261150000000  0.5605510000000  0.5148840000000 1.0
C      1  0.5607810000000  0.4847900000000  0.5259290000000 1.0
C      1  0.4850210000000  0.4737450000000  0.4391240000000 1.0
C      1  0.4739760000000  0.5605510000000  0.5148840000000 1.0
C      1  0.4393090000000  0.5148390000000  0.5259290000000 1.0
C      1  0.5607810000000  0.5148390000000  0.4737900000000 1.0
C      1  0.4393090000000  0.4847900000000  0.4737900000000 1.0
C      1  0.5150690000000  0.5258840000000  0.4391240000000 1.0
C      1  0.4850210000000  0.5258840000000  0.5605960000000 1.0
C      1  0.5150690000000  0.4737450000000  0.5605960000000 1.0
C      1  0.5261150000000  0.4390780000000  0.5148840000000 1.0
C      1  0.4739760000000  0.4390780000000  0.4848360000000 1.0
C      1  0.5261150000000  0.5605510000000  0.4848360000000 1.0
C      1  0.4326770000000  0.4696590000000  0.4731560000000 1.0
C      1  0.4698890000000  0.4731110000000  0.4324920000000 1.0
C      1  0.4733410000000  0.4324470000000  0.4697040000000 1.0
C      1  0.5674130000000  0.5299710000000  0.4731560000000 1.0
C      1  0.4326770000000  0.5299700000000  0.5265640000000 1.0
C      1  0.5674130000000  0.4696590000000  0.5265640000000 1.0
C      1  0.5302010000000  0.5265190000000  0.4324920000000 1.0
C      1  0.4698890000000  0.5265190000000  0.5672280000000 1.0
C      1  0.5302010000000  0.4731110000000  0.5672280000000 1.0
C      1  0.5267490000000  0.5671830000000  0.4697040000000 1.0
C      1  0.4733410000000  0.5671830000000  0.5300160000000 1.0
C      1  0.5267490000000  0.4324470000000  0.5300150000000 1.0
C      1  0.4326770000000  0.4696590000000  0.5265640000000 1.0
C      1  0.4698890000000  0.4731110000000  0.5672280000000 1.0
C      1  0.4733410000000  0.4324470000000  0.5300150000000 1.0
C      1  0.5674130000000  0.5299700000000  0.5265640000000 1.0
C      1  0.4326770000000  0.5299710000000  0.4731560000000 1.0
C      1  0.5674130000000  0.4696590000000  0.4731560000000 1.0
C      1  0.5302010000000  0.5265190000000  0.5672280000000 1.0
C      1  0.4698900000000  0.5265190000000  0.4324920000000 1.0
C      1  0.5302010000000  0.4731110000000  0.4324920000000 1.0
C      1  0.5267490000000  0.5671830000000  0.5300160000000 1.0
C      1  0.4733410000000  0.5671830000000  0.4697040000000 1.0
C      1  0.5267490000000  0.4324470000000  0.4697040000000 1.0
C      1  0.4751830000000  0.4269010000000  0.5069030000000 1.0
C      1  0.4271320000000  0.5068580000000  0.4749980000000 1.0
C      1  0.5070880000000  0.4749520000000  0.4269460000000 1.0
C      1  0.5249070000000  0.5727280000000  0.5069030000000 1.0
C      1  0.4751830000000  0.5727280000000  0.4928160000000 1.0
C      1  0.5249070000000  0.4269010000000  0.4928160000000 1.0
C      1  0.5729590000000  0.4927710000000  0.4749980000000 1.0
C      1  0.4271320000000  0.4927710000000  0.5247220000000 1.0
C      1  0.5729590000000  0.5068580000000  0.5247220000000 1.0
C      1  0.4930020000000  0.5246770000000  0.4269460000000 1.0
C      1  0.5070880000000  0.5246770000000  0.5727730000000 1.0
C      1  0.4930020000000  0.4749520000000  0.5727730000000 1.0
C      1  0.4751830000000  0.4269010000000  0.4928160000000 1.0
C      1  0.4271320000000  0.5068580000000  0.5247220000000 1.0
C      1  0.5070880000000  0.4749520000000  0.5727730000000 1.0
C      1  0.5249070000000  0.5727280000000  0.4928160000000 1.0
C      1  0.4751830000000  0.5727280000000  0.5069030000000 1.0
C      1  0.5249070000000  0.4269010000000  0.5069030000000 1.0
C      1  0.5729590000000  0.4927710000000  0.5247220000000 1.0
C      1  0.4271320000000  0.4927710000000  0.4749980000000 1.0
C      1  0.5729590000000  0.5068580000000  0.4749970000000 1.0
C      1  0.4930020000000  0.5246770000000  0.5727730000000 1.0
C      1  0.5070880000000  0.5246770000000  0.4269460000000 1.0
C      1  0.4930020000000  0.4749520000000  0.4269460000000 1.0
C      1  0.5415770000000  0.4582820000000  0.4583280000000 1.0
C      1  0.4585130000000  0.5413470000000  0.5413920000000 1.0
C      1  0.4585130000000  0.4582820000000  0.5413920000000 1.0
C      1  0.4585130000000  0.5413470000000  0.4583280000000 1.0
C      1  0.5415770000000  0.5413470000000  0.5413920000000 1.0
C      1  0.5415770000000  0.4582820000000  0.5413920000000 1.0
C      1  0.5415770000000  0.5413470000000  0.4583280000000 1.0
C      1  0.4585130000000  0.4582820000000  0.4583270000000 1.0
END
