TITL C-1887018-2751-1 3.82627732653488e-07 1000000 -3211.41978111455 0 0 460 (D2d) n - 1
REM
REM in /nfs/bkarasulu/CARBON/AIRSS/Generating-Clusters/GAP-ML-2020/Higher-Symm/Selected-Sizes/TryA-Only_Ih-Symm/Larger-Clusters
REM
REM
REM
REM
REM
REM ./C.cell (2cf5181f0f1d4d5b12b972d32ad12063)
REM
REM compiler GCC version 9.2.1 20190827 (Red Hat 9.2.1-1)
REM options -cpp -mtune=generic -march=x86-64 -g -O0 -fpre-include=/usr/include/finclude/math-vector-fortran.h
REM seed 1886629889 -1912790331 -1938978194 -1801008466 -617208723 -986450902 1433644375 1688192797 -312965548 1087209515 2083875709 1461700535 1261014269 2058751602 347229519 679369689 811252286 -1562424264 203736384 281607834 -751638581 673893970 -1966706553 -1759517859 1718812732 -2103856544 338207635 -1341796249 946776295 821716556 -831761053 -637734721 -409216845
REM
CELL 1.54180  100.00000  100.00000  100.00000   90.00000   90.00000   90.00000
LATT -1
SFAC C  
C      1  0.4555130000000  0.5530860000000  0.4661160000000 1.0
C      1  0.4697700000000  0.4578540000000  0.5547090000000 1.0
C      1  0.5538270000000  0.4658140000000  0.4573620000000 1.0
C      1  0.5448200000000  0.5530860000000  0.5340510000000 1.0
C      1  0.4555130000000  0.4474140000000  0.5340510000000 1.0
C      1  0.5448200000000  0.4474140000000  0.4661170000000 1.0
C      1  0.5305620000000  0.4578540000000  0.4454590000000 1.0
C      1  0.4697700000000  0.5426460000000  0.4454580000000 1.0
C      1  0.5305620000000  0.5426450000000  0.5547090000000 1.0
C      1  0.4465050000000  0.4658140000000  0.5428050000000 1.0
C      1  0.5538280000000  0.5346860000000  0.5428050000000 1.0
C      1  0.4465050000000  0.5346850000000  0.4573620000000 1.0
C      1  0.4661990000000  0.5530860000000  0.4554300000000 1.0
C      1  0.5547910000000  0.4578540000000  0.4696880000000 1.0
C      1  0.4574450000000  0.4658140000000  0.5537450000000 1.0
C      1  0.5341340000000  0.5530860000000  0.5447370000000 1.0
C      1  0.5341330000000  0.4474140000000  0.4554300000000 1.0
C      1  0.4661990000000  0.4474140000000  0.5447370000000 1.0
C      1  0.4455410000000  0.4578540000000  0.5304800000000 1.0
C      1  0.4455410000000  0.5426450000000  0.4696870000000 1.0
C      1  0.5547920000000  0.5426460000000  0.5304790000000 1.0
C      1  0.5428880000000  0.4658140000000  0.4464230000000 1.0
C      1  0.5428880000000  0.5346850000000  0.5537450000000 1.0
C      1  0.4574450000000  0.5346860000000  0.4464220000000 1.0
C      1  0.4816600000000  0.5662250000000  0.4714870000000 1.0
C      1  0.4726720000000  0.4840010000000  0.5661620000000 1.0
C      1  0.5665960000000  0.4734710000000  0.4815900000000 1.0
C      1  0.5186730000000  0.5662250000000  0.5286800000000 1.0
C      1  0.4816600000000  0.4342750000000  0.5286800000000 1.0
C      1  0.5186730000000  0.4342750000000  0.4714870000000 1.0
C      1  0.5276600000000  0.4840010000000  0.4340060000000 1.0
C      1  0.4726730000000  0.5164990000000  0.4340050000000 1.0
C      1  0.5276600000000  0.5164990000000  0.5661610000000 1.0
C      1  0.4337360000000  0.4734710000000  0.5185770000000 1.0
C      1  0.5665970000000  0.5270290000000  0.5185770000000 1.0
C      1  0.4337360000000  0.5270280000000  0.4815900000000 1.0
C      1  0.4715700000000  0.5662250000000  0.4815770000000 1.0
C      1  0.5662440000000  0.4840010000000  0.4725900000000 1.0
C      1  0.4816730000000  0.4734710000000  0.5665140000000 1.0
C      1  0.5287630000000  0.5662250000000  0.5185900000000 1.0
C      1  0.5287630000000  0.4342750000000  0.4815770000000 1.0
C      1  0.4715700000000  0.4342750000000  0.5185900000000 1.0
C      1  0.4340880000000  0.4840010000000  0.5275770000000 1.0
C      1  0.4340890000000  0.5164990000000  0.4725890000000 1.0
C      1  0.5662450000000  0.5164990000000  0.5275770000000 1.0
C      1  0.5186600000000  0.4734710000000  0.4336540000000 1.0
C      1  0.5186600000000  0.5270290000000  0.5665130000000 1.0
C      1  0.4816730000000  0.5270290000000  0.4336530000000 1.0
C      1  0.4311210000000  0.5081180000000  0.5284170000000 1.0
C      1  0.5295640000000  0.4326410000000  0.5099100000000 1.0
C      1  0.5097810000000  0.5287960000000  0.4320230000000 1.0
C      1  0.5692110000000  0.5081170000000  0.4717500000000 1.0
C      1  0.4311210000000  0.4923820000000  0.4717500000000 1.0
C      1  0.5692120000000  0.4923830000000  0.5284180000000 1.0
C      1  0.4707690000000  0.4326410000000  0.4902570000000 1.0
C      1  0.5295640000000  0.5678590000000  0.4902570000000 1.0
C      1  0.4707690000000  0.5678590000000  0.5099100000000 1.0
C      1  0.4905520000000  0.5287960000000  0.5681440000000 1.0
C      1  0.5097810000000  0.4717040000000  0.5681440000000 1.0
C      1  0.4905520000000  0.4717040000000  0.4320230000000 1.0
C      1  0.5285000000000  0.5081170000000  0.4310390000000 1.0
C      1  0.5099930000000  0.4326410000000  0.5294810000000 1.0
C      1  0.4321060000000  0.5287960000000  0.5096980000000 1.0
C      1  0.4718320000000  0.5081180000000  0.5691290000000 1.0
C      1  0.4718320000000  0.4923830000000  0.4310380000000 1.0
C      1  0.5285000000000  0.4923820000000  0.5691280000000 1.0
C      1  0.4903400000000  0.4326410000000  0.4706860000000 1.0
C      1  0.4903400000000  0.5678590000000  0.5294810000000 1.0
C      1  0.5099930000000  0.5678590000000  0.4706860000000 1.0
C      1  0.5682270000000  0.5287960000000  0.4904690000000 1.0
C      1  0.5682270000000  0.4717040000000  0.5096980000000 1.0
C      1  0.4321060000000  0.4717040000000  0.4904690000000 1.0
C      1  0.4404490000000  0.4622990000000  0.4505980000000 1.0
C      1  0.4506700000000  0.4418640000000  0.4606220000000 1.0
C      1  0.4606010000000  0.4521000000000  0.4404750000000 1.0
C      1  0.5598830000000  0.4622990000000  0.5495690000000 1.0
C      1  0.4404490000000  0.5382010000000  0.5495690000000 1.0
C      1  0.5598830000000  0.5382010000000  0.4505980000000 1.0
C      1  0.5496630000000  0.4418650000000  0.5395460000000 1.0
C      1  0.4506700000000  0.5586350000000  0.5395460000000 1.0
C      1  0.5496630000000  0.5586350000000  0.4606220000000 1.0
C      1  0.5397310000000  0.4520990000000  0.5596930000000 1.0
C      1  0.4606020000000  0.5484000000000  0.5596930000000 1.0
C      1  0.5397310000000  0.5484000000000  0.4404740000000 1.0
C      1  0.4506810000000  0.4622990000000  0.4403670000000 1.0
C      1  0.4607040000000  0.4418650000000  0.4505870000000 1.0
C      1  0.4405570000000  0.4520990000000  0.4605190000000 1.0
C      1  0.5496510000000  0.4622990000000  0.5598010000000 1.0
C      1  0.5496520000000  0.5382010000000  0.4403660000000 1.0
C      1  0.4506810000000  0.5382010000000  0.5598010000000 1.0
C      1  0.5396280000000  0.4418640000000  0.5495800000000 1.0
C      1  0.5396280000000  0.5586350000000  0.4505870000000 1.0
C      1  0.4607040000000  0.5586350000000  0.5495800000000 1.0
C      1  0.5597750000000  0.4521000000000  0.5396480000000 1.0
C      1  0.5597760000000  0.5484000000000  0.4605190000000 1.0
C      1  0.4405570000000  0.5484000000000  0.5396480000000 1.0
C      1  0.4752350000000  0.4212940000000  0.5144620000000 1.0
C      1  0.5135220000000  0.4726420000000  0.4212690000000 1.0
C      1  0.4241180000000  0.5065480000000  0.4718720000000 1.0
C      1  0.5250970000000  0.4212940000000  0.4857050000000 1.0
C      1  0.4752360000000  0.5792060000000  0.4857050000000 1.0
C      1  0.5250970000000  0.5792060000000  0.5144620000000 1.0
C      1  0.4868100000000  0.4726420000000  0.5788980000000 1.0
C      1  0.5135220000000  0.5278580000000  0.5788980000000 1.0
C      1  0.4868110000000  0.5278570000000  0.4212690000000 1.0
C      1  0.5762160000000  0.5065480000000  0.5282950000000 1.0
C      1  0.4241170000000  0.4939520000000  0.5282950000000 1.0
C      1  0.5762150000000  0.4939520000000  0.4718720000000 1.0
C      1  0.5145450000000  0.4212940000000  0.4751530000000 1.0
C      1  0.4213520000000  0.4726420000000  0.5134400000000 1.0
C      1  0.4719550000000  0.5065480000000  0.4240340000000 1.0
C      1  0.4857880000000  0.4212940000000  0.5250150000000 1.0
C      1  0.4857880000000  0.5792060000000  0.4751530000000 1.0
C      1  0.5145450000000  0.5792060000000  0.5250140000000 1.0
C      1  0.5789810000000  0.4726420000000  0.4867280000000 1.0
C      1  0.5789810000000  0.5278570000000  0.5134390000000 1.0
C      1  0.4213520000000  0.5278580000000  0.4867280000000 1.0
C      1  0.5283780000000  0.5065480000000  0.5761320000000 1.0
C      1  0.5283780000000  0.4939520000000  0.4240340000000 1.0
C      1  0.4719550000000  0.4939520000000  0.5761330000000 1.0
C      1  0.4766440000000  0.4684070000000  0.4307990000000 1.0
C      1  0.4297050000000  0.4784650000000  0.4667230000000 1.0
C      1  0.4668080000000  0.4318660000000  0.4766770000000 1.0
C      1  0.5236880000000  0.4684060000000  0.5693680000000 1.0
C      1  0.4766450000000  0.5320940000000  0.5693680000000 1.0
C      1  0.5236880000000  0.5320940000000  0.4307990000000 1.0
C      1  0.5706270000000  0.4784660000000  0.5334440000000 1.0
C      1  0.4297050000000  0.5220340000000  0.5334440000000 1.0
C      1  0.5706270000000  0.5220340000000  0.4667230000000 1.0
C      1  0.5335240000000  0.4318660000000  0.5234910000000 1.0
C      1  0.4668080000000  0.5686340000000  0.5234900000000 1.0
C      1  0.5335240000000  0.5686340000000  0.4766770000000 1.0
C      1  0.4308820000000  0.4684060000000  0.4765620000000 1.0
C      1  0.4668050000000  0.4784660000000  0.4296230000000 1.0
C      1  0.4767590000000  0.4318660000000  0.4667260000000 1.0
C      1  0.5694500000000  0.4684060000000  0.5236050000000 1.0
C      1  0.5694510000000  0.5320940000000  0.4765620000000 1.0
C      1  0.4308820000000  0.5320940000000  0.5236050000000 1.0
C      1  0.5335270000000  0.4784650000000  0.5705450000000 1.0
C      1  0.5335270000000  0.5220340000000  0.4296230000000 1.0
C      1  0.4668060000000  0.5220340000000  0.5705450000000 1.0
C      1  0.5235730000000  0.4318660000000  0.5334420000000 1.0
C      1  0.5235730000000  0.5686340000000  0.4667260000000 1.0
C      1  0.4767600000000  0.5686340000000  0.5334410000000 1.0
C      1  0.5462110000000  0.5061080000000  0.5156690000000 1.0
C      1  0.5157800000000  0.5474760000000  0.5061460000000 1.0
C      1  0.5059810000000  0.5153800000000  0.5466170000000 1.0
C      1  0.4541220000000  0.5061080000000  0.4844990000000 1.0
C      1  0.5462110000000  0.4943920000000  0.4844990000000 1.0
C      1  0.4541210000000  0.4943920000000  0.5156690000000 1.0
C      1  0.4845530000000  0.5474760000000  0.4940210000000 1.0
C      1  0.5157800000000  0.4530240000000  0.4940210000000 1.0
C      1  0.4845530000000  0.4530240000000  0.5061460000000 1.0
C      1  0.4943520000000  0.5153800000000  0.4535500000000 1.0
C      1  0.5059810000000  0.4851200000000  0.4535500000000 1.0
C      1  0.4943520000000  0.4851200000000  0.5466170000000 1.0
C      1  0.5157510000000  0.5061080000000  0.5461280000000 1.0
C      1  0.5062290000000  0.5474760000000  0.5156970000000 1.0
C      1  0.5467000000000  0.5153800000000  0.5058980000000 1.0
C      1  0.4845810000000  0.5061080000000  0.4540380000000 1.0
C      1  0.4845810000000  0.4943920000000  0.5461290000000 1.0
C      1  0.5157510000000  0.4943920000000  0.4540390000000 1.0
C      1  0.4941040000000  0.5474760000000  0.4844700000000 1.0
C      1  0.4941040000000  0.4530240000000  0.5156970000000 1.0
C      1  0.5062290000000  0.4530240000000  0.4844700000000 1.0
C      1  0.4536330000000  0.5153800000000  0.4942690000000 1.0
C      1  0.4536330000000  0.4851200000000  0.5058980000000 1.0
C      1  0.5467000000000  0.4851200000000  0.4942690000000 1.0
C      1  0.4344750000000  0.4887770000000  0.5568080000000 1.0
C      1  0.5569950000000  0.4368380000000  0.4890530000000 1.0
C      1  0.4897080000000  0.5546740000000  0.4340480000000 1.0
C      1  0.5658580000000  0.4887770000000  0.4433590000000 1.0
C      1  0.4344700000000  0.5117230000000  0.4433630000000 1.0
C      1  0.5658530000000  0.5117230000000  0.5568120000000 1.0
C      1  0.4433370000000  0.4368380000000  0.5111140000000 1.0
C      1  0.5569950000000  0.5636620000000  0.5111140000000 1.0
C      1  0.4433370000000  0.5636620000000  0.4890530000000 1.0
C      1  0.5106240000000  0.5546740000000  0.5661200000000 1.0
C      1  0.4897080000000  0.4458260000000  0.5661200000000 1.0
C      1  0.5106240000000  0.4458260000000  0.4340480000000 1.0
C      1  0.5568910000000  0.4887770000000  0.4343920000000 1.0
C      1  0.4891350000000  0.4368380000000  0.5569130000000 1.0
C      1  0.4341300000000  0.5546740000000  0.4896260000000 1.0
C      1  0.4434420000000  0.4887770000000  0.5657750000000 1.0
C      1  0.4434380000000  0.5117230000000  0.4343970000000 1.0
C      1  0.5568870000000  0.5117230000000  0.5657790000000 1.0
C      1  0.5111970000000  0.4368380000000  0.4432550000000 1.0
C      1  0.5111970000000  0.5636620000000  0.5569120000000 1.0
C      1  0.4891360000000  0.5636620000000  0.4432550000000 1.0
C      1  0.5662020000000  0.5546740000000  0.5105410000000 1.0
C      1  0.5662020000000  0.4458260000000  0.4896260000000 1.0
C      1  0.4341300000000  0.4458260000000  0.5105420000000 1.0
C      1  0.5343540000000  0.5234080000000  0.5447650000000 1.0
C      1  0.5449570000000  0.5340460000000  0.5223900000000 1.0
C      1  0.5232630000000  0.5450390000000  0.5343410000000 1.0
C      1  0.4659790000000  0.5234080000000  0.4554020000000 1.0
C      1  0.5343540000000  0.4770920000000  0.4554020000000 1.0
C      1  0.4659790000000  0.4770920000000  0.5447650000000 1.0
C      1  0.4553760000000  0.5340460000000  0.4777770000000 1.0
C      1  0.5449560000000  0.4664540000000  0.4777780000000 1.0
C      1  0.4553760000000  0.4664540000000  0.5223900000000 1.0
C      1  0.4770700000000  0.5450390000000  0.4658260000000 1.0
C      1  0.5232630000000  0.4554610000000  0.4658270000000 1.0
C      1  0.4770700000000  0.4554610000000  0.5343410000000 1.0
C      1  0.5448480000000  0.5234080000000  0.5342710000000 1.0
C      1  0.5224720000000  0.5340460000000  0.5448740000000 1.0
C      1  0.5344240000000  0.5450390000000  0.5231800000000 1.0
C      1  0.4554850000000  0.5234080000000  0.4658960000000 1.0
C      1  0.4554850000000  0.4770920000000  0.5342710000000 1.0
C      1  0.5448480000000  0.4770920000000  0.4658960000000 1.0
C      1  0.4778600000000  0.5340460000000  0.4552930000000 1.0
C      1  0.4778600000000  0.4664540000000  0.5448740000000 1.0
C      1  0.5224720000000  0.4664540000000  0.4552940000000 1.0
C      1  0.4659090000000  0.5450390000000  0.4769870000000 1.0
C      1  0.4659090000000  0.4554610000000  0.5231800000000 1.0
C      1  0.5344230000000  0.4554610000000  0.4769870000000 1.0
C      1  0.4655220000000  0.4975730000000  0.4450370000000 1.0
C      1  0.4445460000000  0.4661560000000  0.4972100000000 1.0
C      1  0.4977160000000  0.4447270000000  0.4648710000000 1.0
C      1  0.5348090000000  0.4975710000000  0.5551300000000 1.0
C      1  0.4655230000000  0.5029280000000  0.5551300000000 1.0
C      1  0.5348100000000  0.5029280000000  0.4450370000000 1.0
C      1  0.5557870000000  0.4661560000000  0.5029570000000 1.0
C      1  0.4445460000000  0.5343440000000  0.5029570000000 1.0
C      1  0.5557870000000  0.5343440000000  0.4972100000000 1.0
C      1  0.5026170000000  0.4447270000000  0.5352960000000 1.0
C      1  0.4977160000000  0.5557730000000  0.5352960000000 1.0
C      1  0.5026170000000  0.5557730000000  0.4648710000000 1.0
C      1  0.4451200000000  0.4975710000000  0.4654410000000 1.0
C      1  0.4972930000000  0.4661560000000  0.4444630000000 1.0
C      1  0.4649540000000  0.4447270000000  0.4976330000000 1.0
C      1  0.5552130000000  0.4975730000000  0.5347280000000 1.0
C      1  0.5552130000000  0.5029280000000  0.4654400000000 1.0
C      1  0.4451190000000  0.5029280000000  0.5347270000000 1.0
C      1  0.5030400000000  0.4661560000000  0.5557040000000 1.0
C      1  0.5030400000000  0.5343440000000  0.4444630000000 1.0
C      1  0.4972930000000  0.5343440000000  0.5557040000000 1.0
C      1  0.5353790000000  0.4447270000000  0.5025340000000 1.0
C      1  0.5353790000000  0.5557730000000  0.4976330000000 1.0
C      1  0.4649540000000  0.5557730000000  0.5025340000000 1.0
C      1  0.5001650000000  0.5229130000000  0.4886330000000 1.0
C      1  0.4888030000000  0.5003280000000  0.5222860000000 1.0
C      1  0.5224320000000  0.4887170000000  0.5001090000000 1.0
C      1  0.5001670000000  0.5229130000000  0.5115340000000 1.0
C      1  0.5001650000000  0.4775870000000  0.5115340000000 1.0
C      1  0.5001670000000  0.4775870000000  0.4886330000000 1.0
C      1  0.5115290000000  0.5003280000000  0.4778810000000 1.0
C      1  0.4888030000000  0.5001720000000  0.4778810000000 1.0
C      1  0.5115290000000  0.5001720000000  0.5222860000000 1.0
C      1  0.4779000000000  0.4887170000000  0.5000590000000 1.0
C      1  0.5224320000000  0.5117820000000  0.5000590000000 1.0
C      1  0.4779000000000  0.5117820000000  0.5001090000000 1.0
C      1  0.4887160000000  0.5229130000000  0.5000830000000 1.0
C      1  0.5223690000000  0.5003280000000  0.4887210000000 1.0
C      1  0.5001910000000  0.4887170000000  0.5223500000000 1.0
C      1  0.5116170000000  0.5229130000000  0.5000850000000 1.0
C      1  0.5116170000000  0.4775870000000  0.5000830000000 1.0
C      1  0.4887160000000  0.4775870000000  0.5000850000000 1.0
C      1  0.4779640000000  0.5003280000000  0.5114460000000 1.0
C      1  0.4779640000000  0.5001720000000  0.4887210000000 1.0
C      1  0.5223690000000  0.5001720000000  0.5114460000000 1.0
C      1  0.5001410000000  0.4887170000000  0.4778170000000 1.0
C      1  0.5001410000000  0.5117820000000  0.5223500000000 1.0
C      1  0.5001910000000  0.5117820000000  0.4778170000000 1.0
C      1  0.4829840000000  0.4256840000000  0.4926220000000 1.0
C      1  0.4945990000000  0.4826070000000  0.4238580000000 1.0
C      1  0.4236310000000  0.4924890000000  0.4852460000000 1.0
C      1  0.5173490000000  0.4256840000000  0.5075450000000 1.0
C      1  0.4829840000000  0.5748160000000  0.5075450000000 1.0
C      1  0.5173490000000  0.5748160000000  0.4926220000000 1.0
C      1  0.5057340000000  0.4826070000000  0.5763100000000 1.0
C      1  0.4945990000000  0.5178920000000  0.5763100000000 1.0
C      1  0.5057340000000  0.5178920000000  0.4238570000000 1.0
C      1  0.5767010000000  0.4924890000000  0.5149210000000 1.0
C      1  0.4236310000000  0.5080110000000  0.5149210000000 1.0
C      1  0.5767010000000  0.5080110000000  0.4852460000000 1.0
C      1  0.4927050000000  0.4256840000000  0.4829010000000 1.0
C      1  0.4239400000000  0.4826070000000  0.4945160000000 1.0
C      1  0.4853290000000  0.4924890000000  0.4235490000000 1.0
C      1  0.5076280000000  0.4256840000000  0.5172660000000 1.0
C      1  0.5076280000000  0.5748160000000  0.4829010000000 1.0
C      1  0.4927050000000  0.5748160000000  0.5172660000000 1.0
C      1  0.5763920000000  0.4826070000000  0.5056510000000 1.0
C      1  0.5763920000000  0.5178920000000  0.4945160000000 1.0
C      1  0.4239400000000  0.5178920000000  0.5056510000000 1.0
C      1  0.5150040000000  0.4924890000000  0.5766180000000 1.0
C      1  0.5150040000000  0.5080110000000  0.4235490000000 1.0
C      1  0.4853290000000  0.5080110000000  0.5766190000000 1.0
C      1  0.4913650000000  0.4593990000000  0.4687590000000 1.0
C      1  0.4688990000000  0.4910230000000  0.4590030000000 1.0
C      1  0.4592120000000  0.4692860000000  0.4910810000000 1.0
C      1  0.5089670000000  0.4593990000000  0.5314080000000 1.0
C      1  0.4913650000000  0.5411010000000  0.5314080000000 1.0
C      1  0.5089670000000  0.5411010000000  0.4687590000000 1.0
C      1  0.5314330000000  0.4910220000000  0.5411640000000 1.0
C      1  0.4688990000000  0.5094770000000  0.5411640000000 1.0
C      1  0.5314330000000  0.5094770000000  0.4590030000000 1.0
C      1  0.5411210000000  0.4692860000000  0.5090860000000 1.0
C      1  0.4592120000000  0.5312140000000  0.5090860000000 1.0
C      1  0.5411210000000  0.5312140000000  0.4910810000000 1.0
C      1  0.4688420000000  0.4593990000000  0.4912830000000 1.0
C      1  0.4590860000000  0.4910220000000  0.4688170000000 1.0
C      1  0.4911640000000  0.4692860000000  0.4591290000000 1.0
C      1  0.5314910000000  0.4593990000000  0.5088850000000 1.0
C      1  0.5314910000000  0.5411010000000  0.4912830000000 1.0
C      1  0.4688420000000  0.5411010000000  0.5088840000000 1.0
C      1  0.5412470000000  0.4910230000000  0.5313510000000 1.0
C      1  0.5412470000000  0.5094770000000  0.4688160000000 1.0
C      1  0.4590860000000  0.5094770000000  0.5313510000000 1.0
C      1  0.5091690000000  0.4692860000000  0.5410380000000 1.0
C      1  0.5091690000000  0.5312140000000  0.4591290000000 1.0
C      1  0.4911640000000  0.5312140000000  0.5410380000000 1.0
C      1  0.4170640000000  0.4838200000000  0.5071070000000 1.0
C      1  0.5046770000000  0.4190730000000  0.4852630000000 1.0
C      1  0.4844020000000  0.5051420000000  0.4173360000000 1.0
C      1  0.5832690000000  0.4838200000000  0.4930610000000 1.0
C      1  0.4170640000000  0.5166800000000  0.4930600000000 1.0
C      1  0.5832690000000  0.5166800000000  0.5071060000000 1.0
C      1  0.4956560000000  0.4190730000000  0.5149040000000 1.0
C      1  0.5046770000000  0.5814270000000  0.5149040000000 1.0
C      1  0.4956560000000  0.5814270000000  0.4852630000000 1.0
C      1  0.5159310000000  0.5051430000000  0.5828300000000 1.0
C      1  0.4844020000000  0.4953570000000  0.5828300000000 1.0
C      1  0.5159310000000  0.4953570000000  0.4173370000000 1.0
C      1  0.5071890000000  0.4838200000000  0.4169810000000 1.0
C      1  0.4853460000000  0.4190730000000  0.5045940000000 1.0
C      1  0.4174200000000  0.5051430000000  0.4843190000000 1.0
C      1  0.4931430000000  0.4838200000000  0.5831860000000 1.0
C      1  0.4931440000000  0.5166800000000  0.4169810000000 1.0
C      1  0.5071900000000  0.5166800000000  0.5831860000000 1.0
C      1  0.5149870000000  0.4190730000000  0.4955730000000 1.0
C      1  0.5149870000000  0.5814270000000  0.5045940000000 1.0
C      1  0.4853460000000  0.5814270000000  0.4955730000000 1.0
C      1  0.5829130000000  0.5051420000000  0.5158480000000 1.0
C      1  0.5829130000000  0.4953570000000  0.4843190000000 1.0
C      1  0.4174200000000  0.4953570000000  0.5158480000000 1.0
C      1  0.4513610000000  0.4988950000000  0.4403110000000 1.0
C      1  0.4394320000000  0.4524030000000  0.4976680000000 1.0
C      1  0.4982560000000  0.4405430000000  0.4507140000000 1.0
C      1  0.5489690000000  0.4988930000000  0.5598570000000 1.0
C      1  0.4513620000000  0.5016060000000  0.5598570000000 1.0
C      1  0.5489700000000  0.5016060000000  0.4403100000000 1.0
C      1  0.5609010000000  0.4524030000000  0.5024990000000 1.0
C      1  0.4394320000000  0.5480970000000  0.5024990000000 1.0
C      1  0.5609010000000  0.5480970000000  0.4976680000000 1.0
C      1  0.5020760000000  0.4405430000000  0.5494530000000 1.0
C      1  0.4982560000000  0.5599570000000  0.5494530000000 1.0
C      1  0.5020770000000  0.5599570000000  0.4507140000000 1.0
C      1  0.4403930000000  0.4988930000000  0.4512810000000 1.0
C      1  0.4977510000000  0.4524030000000  0.4393490000000 1.0
C      1  0.4507970000000  0.4405430000000  0.4981730000000 1.0
C      1  0.5599390000000  0.4988950000000  0.5488890000000 1.0
C      1  0.5599390000000  0.5016060000000  0.4512800000000 1.0
C      1  0.4403930000000  0.5016060000000  0.5488870000000 1.0
C      1  0.5025820000000  0.4524030000000  0.5608180000000 1.0
C      1  0.5025820000000  0.5480970000000  0.4393490000000 1.0
C      1  0.4977510000000  0.5480970000000  0.5608180000000 1.0
C      1  0.5495360000000  0.4405430000000  0.5019940000000 1.0
C      1  0.5495360000000  0.5599570000000  0.4981730000000 1.0
C      1  0.4507970000000  0.5599570000000  0.5019940000000 1.0
C      1  0.4846460000000  0.5634870000000  0.5546350000000 1.0
C      1  0.5546290000000  0.4858860000000  0.5644110000000 1.0
C      1  0.5643860000000  0.5534110000000  0.4843180000000 1.0
C      1  0.5156860000000  0.5634870000000  0.4455320000000 1.0
C      1  0.4846460000000  0.4370130000000  0.4455320000000 1.0
C      1  0.5156860000000  0.4370130000000  0.5546350000000 1.0
C      1  0.4457030000000  0.4858870000000  0.4357570000000 1.0
C      1  0.5546300000000  0.5146130000000  0.4357560000000 1.0
C      1  0.4457030000000  0.5146130000000  0.5644110000000 1.0
C      1  0.4359460000000  0.5534110000000  0.5158490000000 1.0
C      1  0.5643860000000  0.4470890000000  0.5158500000000 1.0
C      1  0.4359460000000  0.4470890000000  0.4843180000000 1.0
C      1  0.5547180000000  0.5634870000000  0.4845630000000 1.0
C      1  0.5644930000000  0.4858870000000  0.5545470000000 1.0
C      1  0.4844010000000  0.5534110000000  0.5643040000000 1.0
C      1  0.4456150000000  0.5634870000000  0.5156040000000 1.0
C      1  0.4456150000000  0.4370130000000  0.4845640000000 1.0
C      1  0.5547180000000  0.4370130000000  0.5156040000000 1.0
C      1  0.4358390000000  0.4858860000000  0.4456210000000 1.0
C      1  0.4358390000000  0.5146130000000  0.5545470000000 1.0
C      1  0.5644930000000  0.5146130000000  0.4456200000000 1.0
C      1  0.5159320000000  0.5534110000000  0.4358640000000 1.0
C      1  0.5159320000000  0.4470890000000  0.5643040000000 1.0
C      1  0.4844000000000  0.4470890000000  0.4358640000000 1.0
C      1  0.5373040000000  0.5167900000000  0.4947950000000 1.0
C      1  0.4950410000000  0.5378900000000  0.5167250000000 1.0
C      1  0.5168620000000  0.4948760000000  0.5370540000000 1.0
C      1  0.4630290000000  0.5167900000000  0.5053720000000 1.0
C      1  0.5373040000000  0.4837100000000  0.5053720000000 1.0
C      1  0.4630290000000  0.4837100000000  0.4947960000000 1.0
C      1  0.5052920000000  0.5378900000000  0.4834420000000 1.0
C      1  0.4950410000000  0.4626100000000  0.4834420000000 1.0
C      1  0.5052920000000  0.4626100000000  0.5167250000000 1.0
C      1  0.4834700000000  0.4948770000000  0.4631130000000 1.0
C      1  0.5168620000000  0.5056230000000  0.4631130000000 1.0
C      1  0.4834700000000  0.5056230000000  0.5370540000000 1.0
C      1  0.4948780000000  0.5167900000000  0.5372210000000 1.0
C      1  0.5168080000000  0.5378900000000  0.4949580000000 1.0
C      1  0.5371370000000  0.4948770000000  0.5167800000000 1.0
C      1  0.5054540000000  0.5167900000000  0.4629460000000 1.0
C      1  0.5054540000000  0.4837100000000  0.5372210000000 1.0
C      1  0.4948780000000  0.4837100000000  0.4629460000000 1.0
C      1  0.4835250000000  0.5378900000000  0.5052090000000 1.0
C      1  0.4835240000000  0.4626100000000  0.4949580000000 1.0
C      1  0.5168080000000  0.4626100000000  0.5052090000000 1.0
C      1  0.4631960000000  0.4948760000000  0.4833880000000 1.0
C      1  0.4631950000000  0.5056230000000  0.5167800000000 1.0
C      1  0.5371370000000  0.5056230000000  0.4833880000000 1.0
C      1  0.5106780000000  0.4724790000000  0.4469740000000 1.0
C      1  0.4478200000000  0.5110200000000  0.4715690000000 1.0
C      1  0.4715030000000  0.4469830000000  0.5109530000000 1.0
C      1  0.4896550000000  0.4724790000000  0.5531930000000 1.0
C      1  0.5106780000000  0.5280210000000  0.5531930000000 1.0
C      1  0.4896550000000  0.5280210000000  0.4469740000000 1.0
C      1  0.5525140000000  0.5110210000000  0.5285980000000 1.0
C      1  0.4478190000000  0.4894790000000  0.5285980000000 1.0
C      1  0.5525130000000  0.4894790000000  0.4715690000000 1.0
C      1  0.5288290000000  0.4469830000000  0.4892150000000 1.0
C      1  0.4715030000000  0.5535170000000  0.4892140000000 1.0
C      1  0.5288290000000  0.5535170000000  0.5109530000000 1.0
C      1  0.4470570000000  0.4724790000000  0.5105950000000 1.0
C      1  0.4716520000000  0.5110210000000  0.4477360000000 1.0
C      1  0.5110350000000  0.4469830000000  0.4714210000000 1.0
C      1  0.5532760000000  0.4724790000000  0.4895720000000 1.0
C      1  0.5532760000000  0.5280210000000  0.5105950000000 1.0
C      1  0.4470570000000  0.5280210000000  0.4895720000000 1.0
C      1  0.5286810000000  0.5110200000000  0.5524300000000 1.0
C      1  0.5286810000000  0.4894790000000  0.4477370000000 1.0
C      1  0.4716520000000  0.4894790000000  0.5524310000000 1.0
C      1  0.4892970000000  0.4469830000000  0.5287470000000 1.0
C      1  0.4892970000000  0.5535170000000  0.4714210000000 1.0
C      1  0.5110350000000  0.5535170000000  0.5287470000000 1.0
C      1  0.4537090000000  0.5649830000000  0.5268960000000 1.0
C      1  0.5271120000000  0.4552610000000  0.5658060000000 1.0
C      1  0.5665040000000  0.5256600000000  0.4536770000000 1.0
C      1  0.5466240000000  0.5649830000000  0.4732710000000 1.0
C      1  0.4537090000000  0.4355170000000  0.4732710000000 1.0
C      1  0.5466240000000  0.4355170000000  0.5268970000000 1.0
C      1  0.4732200000000  0.4552620000000  0.4343620000000 1.0
C      1  0.5271130000000  0.5452390000000  0.4343610000000 1.0
C      1  0.4732200000000  0.5452380000000  0.5658060000000 1.0
C      1  0.4338280000000  0.5256600000000  0.5464900000000 1.0
C      1  0.5665040000000  0.4748400000000  0.5464900000000 1.0
C      1  0.4338280000000  0.4748390000000  0.4536770000000 1.0
C      1  0.5269790000000  0.5649830000000  0.4536260000000 1.0
C      1  0.5658880000000  0.4552620000000  0.5270300000000 1.0
C      1  0.4537600000000  0.5256600000000  0.5664210000000 1.0
C      1  0.4733540000000  0.5649830000000  0.5465410000000 1.0
C      1  0.4733530000000  0.4355170000000  0.4536260000000 1.0
C      1  0.5269790000000  0.4355170000000  0.5465410000000 1.0
C      1  0.4344440000000  0.4552610000000  0.4731370000000 1.0
C      1  0.4344440000000  0.5452380000000  0.5270300000000 1.0
C      1  0.5658880000000  0.5452390000000  0.4731370000000 1.0
C      1  0.5465730000000  0.5256600000000  0.4337460000000 1.0
C      1  0.5465730000000  0.4748390000000  0.5664220000000 1.0
C      1  0.4537600000000  0.4748400000000  0.4337460000000 1.0
C      1  0.4525560000000  0.5473380000000  0.4524730000000 1.0
C      1  0.4525560000000  0.4531620000000  0.5476940000000 1.0
C      1  0.5477770000000  0.4531620000000  0.4524730000000 1.0
C      1  0.5477770000000  0.5473380000000  0.5476940000000 1.0
END
