TITL C-1887021-2772-11 -1.38956875362231e-06 1000000 -2542.44268196678 0 0 360 (Th) n - 1
REM
REM in /nfs/bkarasulu/CARBON/AIRSS/Generating-Clusters/GAP-ML-2020/Higher-Symm/Selected-Sizes/TryA-Only_Ih-Symm/Larger-Clusters
REM
REM
REM
REM
REM
REM ./C.cell (2cf5181f0f1d4d5b12b972d32ad12063)
REM
REM compiler GCC version 9.2.1 20190827 (Red Hat 9.2.1-1)
REM options -cpp -mtune=generic -march=x86-64 -g -O0 -fpre-include=/usr/include/finclude/math-vector-fortran.h
REM seed 1546065035 2102768998 169754034 646324756 -1658265082 -702714206 286087902 463360571 402812831 1928141805 -1034704802 1865579300 2032448877 799934406 703474203 1058662049 -284044039 1189575536 1991537981 1969754926 1448121351 -1538513267 1071764876 -695394659 -1097034163 1845547923 -1503459160 -1622430946 644608160 -2003489340 1813158987 455225295 -701269677
REM
CELL 1.54180  100.00000  100.00000  100.00000   90.00000   90.00000   90.00000
LATT -1
SFAC C  
C      1  0.5277540000000  0.4734060000000  0.4390130000000 1.0
C      1  0.4734060000000  0.4390130000000  0.5277540000000 1.0
C      1  0.4390130000000  0.5277540000000  0.4734060000000 1.0
C      1  0.4722460000000  0.4734060000000  0.5609870000000 1.0
C      1  0.4722460000000  0.5265940000000  0.4390130000000 1.0
C      1  0.5277540000000  0.5265940000000  0.5609870000000 1.0
C      1  0.5265940000000  0.4390130000000  0.4722460000000 1.0
C      1  0.5265940000000  0.5609870000000  0.5277540000000 1.0
C      1  0.4734060000000  0.5609870000000  0.4722460000000 1.0
C      1  0.5609870000000  0.5277540000000  0.5265940000000 1.0
C      1  0.5609870000000  0.4722460000000  0.4734060000000 1.0
C      1  0.4390130000000  0.4722460000000  0.5265940000000 1.0
C      1  0.5277540000000  0.5265940000000  0.4390130000000 1.0
C      1  0.4734060000000  0.5609870000000  0.5277540000000 1.0
C      1  0.4390130000000  0.4722460000000  0.4734060000000 1.0
C      1  0.4722460000000  0.5265940000000  0.5609870000000 1.0
C      1  0.4722460000000  0.4734060000000  0.4390130000000 1.0
C      1  0.5277540000000  0.4734060000000  0.5609870000000 1.0
C      1  0.5265940000000  0.5609870000000  0.4722460000000 1.0
C      1  0.5265940000000  0.4390130000000  0.5277540000000 1.0
C      1  0.4734060000000  0.4390130000000  0.4722460000000 1.0
C      1  0.5609870000000  0.4722460000000  0.5265940000000 1.0
C      1  0.5609870000000  0.5277540000000  0.4734060000000 1.0
C      1  0.4390130000000  0.5277540000000  0.5265940000000 1.0
C      1  0.5661310000000  0.4929080000000  0.5372210000000 1.0
C      1  0.4929080000000  0.5372210000000  0.5661310000000 1.0
C      1  0.5372210000000  0.5661310000000  0.4929080000000 1.0
C      1  0.4338690000000  0.4929080000000  0.4627790000000 1.0
C      1  0.4338690000000  0.5070920000000  0.5372210000000 1.0
C      1  0.5661310000000  0.5070920000000  0.4627790000000 1.0
C      1  0.5070920000000  0.5372210000000  0.4338690000000 1.0
C      1  0.5070920000000  0.4627790000000  0.5661310000000 1.0
C      1  0.4929080000000  0.4627790000000  0.4338690000000 1.0
C      1  0.4627790000000  0.5661310000000  0.5070920000000 1.0
C      1  0.4627790000000  0.4338690000000  0.4929080000000 1.0
C      1  0.5372210000000  0.4338690000000  0.5070920000000 1.0
C      1  0.5661310000000  0.5070920000000  0.5372210000000 1.0
C      1  0.4929080000000  0.4627790000000  0.5661310000000 1.0
C      1  0.5372210000000  0.4338690000000  0.4929080000000 1.0
C      1  0.4338690000000  0.5070920000000  0.4627790000000 1.0
C      1  0.4338690000000  0.4929080000000  0.5372210000000 1.0
C      1  0.5661310000000  0.4929080000000  0.4627790000000 1.0
C      1  0.5070920000000  0.4627790000000  0.4338690000000 1.0
C      1  0.5070920000000  0.5372210000000  0.5661310000000 1.0
C      1  0.4929080000000  0.5372210000000  0.4338690000000 1.0
C      1  0.4627790000000  0.4338690000000  0.5070920000000 1.0
C      1  0.4627790000000  0.5661310000000  0.4929080000000 1.0
C      1  0.5372210000000  0.5661310000000  0.5070920000000 1.0
C      1  0.4823190000000  0.5811180000000  0.5181980000000 1.0
C      1  0.5811180000000  0.5181980000000  0.4823190000000 1.0
C      1  0.5181980000000  0.4823190000000  0.5811180000000 1.0
C      1  0.5176810000000  0.5811180000000  0.4818020000000 1.0
C      1  0.5176810000000  0.4188820000000  0.5181980000000 1.0
C      1  0.4823190000000  0.4188820000000  0.4818020000000 1.0
C      1  0.4188820000000  0.5181980000000  0.5176810000000 1.0
C      1  0.4188820000000  0.4818020000000  0.4823190000000 1.0
C      1  0.5811180000000  0.4818020000000  0.5176810000000 1.0
C      1  0.4818020000000  0.4823190000000  0.4188820000000 1.0
C      1  0.4818020000000  0.5176810000000  0.5811180000000 1.0
C      1  0.5181980000000  0.5176810000000  0.4188820000000 1.0
C      1  0.4823190000000  0.4188820000000  0.5181980000000 1.0
C      1  0.5811180000000  0.4818020000000  0.4823190000000 1.0
C      1  0.5181980000000  0.5176810000000  0.5811180000000 1.0
C      1  0.5176810000000  0.4188820000000  0.4818020000000 1.0
C      1  0.5176810000000  0.5811180000000  0.5181980000000 1.0
C      1  0.4823190000000  0.5811180000000  0.4818020000000 1.0
C      1  0.4188820000000  0.4818020000000  0.5176810000000 1.0
C      1  0.4188820000000  0.5181980000000  0.4823190000000 1.0
C      1  0.5811180000000  0.5181980000000  0.5176810000000 1.0
C      1  0.4818020000000  0.5176810000000  0.4188820000000 1.0
C      1  0.4818020000000  0.4823190000000  0.5811180000000 1.0
C      1  0.5181980000000  0.4823190000000  0.4188820000000 1.0
C      1  0.5268720000000  0.5074570000000  0.4206010000000 1.0
C      1  0.5074570000000  0.4206010000000  0.5268720000000 1.0
C      1  0.4206010000000  0.5268720000000  0.5074570000000 1.0
C      1  0.4731280000000  0.5074570000000  0.5793990000000 1.0
C      1  0.4731280000000  0.4925430000000  0.4206010000000 1.0
C      1  0.5268720000000  0.4925430000000  0.5793990000000 1.0
C      1  0.4925430000000  0.4206010000000  0.4731280000000 1.0
C      1  0.4925430000000  0.5793990000000  0.5268720000000 1.0
C      1  0.5074570000000  0.5793990000000  0.4731280000000 1.0
C      1  0.5793990000000  0.5268720000000  0.4925430000000 1.0
C      1  0.5793990000000  0.4731280000000  0.5074570000000 1.0
C      1  0.4206010000000  0.4731280000000  0.4925430000000 1.0
C      1  0.5268720000000  0.4925430000000  0.4206010000000 1.0
C      1  0.5074570000000  0.5793990000000  0.5268720000000 1.0
C      1  0.4206010000000  0.4731280000000  0.5074570000000 1.0
C      1  0.4731280000000  0.4925430000000  0.5793990000000 1.0
C      1  0.4731280000000  0.5074570000000  0.4206010000000 1.0
C      1  0.5268720000000  0.5074570000000  0.5793990000000 1.0
C      1  0.4925430000000  0.5793990000000  0.4731280000000 1.0
C      1  0.4925430000000  0.4206010000000  0.5268720000000 1.0
C      1  0.5074570000000  0.4206010000000  0.4731280000000 1.0
C      1  0.5793990000000  0.4731280000000  0.4925430000000 1.0
C      1  0.5793990000000  0.5268720000000  0.5074570000000 1.0
C      1  0.4206010000000  0.5268720000000  0.4925430000000 1.0
C      1  0.5709400000000  0.5168990000000  0.5269760000000 1.0
C      1  0.5168990000000  0.5269760000000  0.5709400000000 1.0
C      1  0.5269760000000  0.5709400000000  0.5168990000000 1.0
C      1  0.4290600000000  0.5168990000000  0.4730240000000 1.0
C      1  0.4290600000000  0.4831010000000  0.5269760000000 1.0
C      1  0.5709400000000  0.4831010000000  0.4730240000000 1.0
C      1  0.4831010000000  0.5269760000000  0.4290600000000 1.0
C      1  0.4831010000000  0.4730240000000  0.5709400000000 1.0
C      1  0.5168990000000  0.4730240000000  0.4290600000000 1.0
C      1  0.4730240000000  0.5709400000000  0.4831010000000 1.0
C      1  0.4730240000000  0.4290600000000  0.5168990000000 1.0
C      1  0.5269760000000  0.4290600000000  0.4831010000000 1.0
C      1  0.5709400000000  0.4831010000000  0.5269760000000 1.0
C      1  0.5168990000000  0.4730240000000  0.5709400000000 1.0
C      1  0.5269760000000  0.4290600000000  0.5168990000000 1.0
C      1  0.4290600000000  0.4831010000000  0.4730240000000 1.0
C      1  0.4290600000000  0.5168990000000  0.5269760000000 1.0
C      1  0.5709400000000  0.5168990000000  0.4730240000000 1.0
C      1  0.4831010000000  0.4730240000000  0.4290600000000 1.0
C      1  0.4831010000000  0.5269760000000  0.5709400000000 1.0
C      1  0.5168990000000  0.5269760000000  0.4290600000000 1.0
C      1  0.4730240000000  0.4290600000000  0.4831010000000 1.0
C      1  0.4730240000000  0.5709400000000  0.5168990000000 1.0
C      1  0.5269760000000  0.5709400000000  0.4831010000000 1.0
C      1  0.5070320000000  0.5157470000000  0.5459240000000 1.0
C      1  0.5157470000000  0.5459240000000  0.5070320000000 1.0
C      1  0.5459240000000  0.5070320000000  0.5157470000000 1.0
C      1  0.4929680000000  0.5157470000000  0.4540760000000 1.0
C      1  0.4929680000000  0.4842530000000  0.5459240000000 1.0
C      1  0.5070320000000  0.4842530000000  0.4540760000000 1.0
C      1  0.4842530000000  0.5459240000000  0.4929680000000 1.0
C      1  0.4842530000000  0.4540760000000  0.5070320000000 1.0
C      1  0.5157470000000  0.4540760000000  0.4929680000000 1.0
C      1  0.4540760000000  0.5070320000000  0.4842530000000 1.0
C      1  0.4540760000000  0.4929680000000  0.5157470000000 1.0
C      1  0.5459240000000  0.4929680000000  0.4842530000000 1.0
C      1  0.5070320000000  0.4842530000000  0.5459240000000 1.0
C      1  0.5157470000000  0.4540760000000  0.5070320000000 1.0
C      1  0.5459240000000  0.4929680000000  0.5157470000000 1.0
C      1  0.4929680000000  0.4842530000000  0.4540760000000 1.0
C      1  0.4929680000000  0.5157470000000  0.5459240000000 1.0
C      1  0.5070320000000  0.5157470000000  0.4540760000000 1.0
C      1  0.4842530000000  0.4540760000000  0.4929680000000 1.0
C      1  0.4842530000000  0.5459240000000  0.5070320000000 1.0
C      1  0.5157470000000  0.5459240000000  0.4929680000000 1.0
C      1  0.4540760000000  0.4929680000000  0.4842530000000 1.0
C      1  0.4540760000000  0.5070320000000  0.5157470000000 1.0
C      1  0.5459240000000  0.5070320000000  0.4842530000000 1.0
C      1  0.5278770000000  0.4826490000000  0.5256700000000 1.0
C      1  0.4826490000000  0.5256700000000  0.5278770000000 1.0
C      1  0.5256700000000  0.5278770000000  0.4826490000000 1.0
C      1  0.4721230000000  0.4826490000000  0.4743300000000 1.0
C      1  0.4721230000000  0.5173510000000  0.5256700000000 1.0
C      1  0.5278770000000  0.5173510000000  0.4743300000000 1.0
C      1  0.5173510000000  0.5256700000000  0.4721230000000 1.0
C      1  0.5173510000000  0.4743300000000  0.5278770000000 1.0
C      1  0.4826490000000  0.4743300000000  0.4721230000000 1.0
C      1  0.4743300000000  0.5278770000000  0.5173510000000 1.0
C      1  0.4743300000000  0.4721230000000  0.4826490000000 1.0
C      1  0.5256700000000  0.4721230000000  0.5173510000000 1.0
C      1  0.5278770000000  0.5173510000000  0.5256700000000 1.0
C      1  0.4826490000000  0.4743300000000  0.5278770000000 1.0
C      1  0.5256700000000  0.4721230000000  0.4826490000000 1.0
C      1  0.4721230000000  0.5173510000000  0.4743300000000 1.0
C      1  0.4721230000000  0.4826490000000  0.5256700000000 1.0
C      1  0.5278770000000  0.4826490000000  0.4743300000000 1.0
C      1  0.5173510000000  0.4743300000000  0.4721230000000 1.0
C      1  0.5173510000000  0.5256700000000  0.5278770000000 1.0
C      1  0.4826490000000  0.5256700000000  0.4721230000000 1.0
C      1  0.4743300000000  0.4721230000000  0.5173510000000 1.0
C      1  0.4743300000000  0.5278770000000  0.4826490000000 1.0
C      1  0.5256700000000  0.5278770000000  0.5173510000000 1.0
C      1  0.5289900000000  0.5374810000000  0.4919800000000 1.0
C      1  0.5374810000000  0.4919800000000  0.5289900000000 1.0
C      1  0.4919800000000  0.5289900000000  0.5374810000000 1.0
C      1  0.4710100000000  0.5374810000000  0.5080200000000 1.0
C      1  0.4710100000000  0.4625190000000  0.4919800000000 1.0
C      1  0.5289900000000  0.4625190000000  0.5080200000000 1.0
C      1  0.4625190000000  0.4919800000000  0.4710100000000 1.0
C      1  0.4625190000000  0.5080200000000  0.5289900000000 1.0
C      1  0.5374810000000  0.5080200000000  0.4710100000000 1.0
C      1  0.5080200000000  0.5289900000000  0.4625190000000 1.0
C      1  0.5080200000000  0.4710100000000  0.5374810000000 1.0
C      1  0.4919800000000  0.4710100000000  0.4625190000000 1.0
C      1  0.5289900000000  0.4625190000000  0.4919800000000 1.0
C      1  0.5374810000000  0.5080200000000  0.5289900000000 1.0
C      1  0.4919800000000  0.4710100000000  0.5374810000000 1.0
C      1  0.4710100000000  0.4625190000000  0.5080200000000 1.0
C      1  0.4710100000000  0.5374810000000  0.4919800000000 1.0
C      1  0.5289900000000  0.5374810000000  0.5080200000000 1.0
C      1  0.4625190000000  0.5080200000000  0.4710100000000 1.0
C      1  0.4625190000000  0.4919800000000  0.5289900000000 1.0
C      1  0.5374810000000  0.4919800000000  0.4710100000000 1.0
C      1  0.5080200000000  0.4710100000000  0.4625190000000 1.0
C      1  0.5080200000000  0.5289900000000  0.5374810000000 1.0
C      1  0.4919800000000  0.5289900000000  0.4625190000000 1.0
C      1  0.5070310000000  0.4323680000000  0.5354570000000 1.0
C      1  0.4323680000000  0.5354570000000  0.5070310000000 1.0
C      1  0.5354570000000  0.5070310000000  0.4323680000000 1.0
C      1  0.4929690000000  0.4323680000000  0.4645430000000 1.0
C      1  0.4929690000000  0.5676320000000  0.5354570000000 1.0
C      1  0.5070310000000  0.5676320000000  0.4645430000000 1.0
C      1  0.5676320000000  0.5354570000000  0.4929690000000 1.0
C      1  0.5676320000000  0.4645430000000  0.5070310000000 1.0
C      1  0.4323680000000  0.4645430000000  0.4929690000000 1.0
C      1  0.4645430000000  0.5070310000000  0.5676320000000 1.0
C      1  0.4645430000000  0.4929690000000  0.4323680000000 1.0
C      1  0.5354570000000  0.4929690000000  0.5676320000000 1.0
C      1  0.5070310000000  0.5676320000000  0.5354570000000 1.0
C      1  0.4323680000000  0.4645430000000  0.5070310000000 1.0
C      1  0.5354570000000  0.4929690000000  0.4323680000000 1.0
C      1  0.4929690000000  0.5676320000000  0.4645430000000 1.0
C      1  0.4929690000000  0.4323680000000  0.5354570000000 1.0
C      1  0.5070310000000  0.4323680000000  0.4645430000000 1.0
C      1  0.5676320000000  0.4645430000000  0.4929690000000 1.0
C      1  0.5676320000000  0.5354570000000  0.5070310000000 1.0
C      1  0.4323680000000  0.5354570000000  0.4929690000000 1.0
C      1  0.4645430000000  0.4929690000000  0.5676320000000 1.0
C      1  0.4645430000000  0.5070310000000  0.4323680000000 1.0
C      1  0.5354570000000  0.5070310000000  0.5676320000000 1.0
C      1  0.5131630000000  0.4452180000000  0.4688570000000 1.0
C      1  0.4452180000000  0.4688570000000  0.5131630000000 1.0
C      1  0.4688570000000  0.5131630000000  0.4452180000000 1.0
C      1  0.4868370000000  0.4452180000000  0.5311430000000 1.0
C      1  0.4868370000000  0.5547820000000  0.4688570000000 1.0
C      1  0.5131630000000  0.5547820000000  0.5311430000000 1.0
C      1  0.5547820000000  0.4688570000000  0.4868370000000 1.0
C      1  0.5547820000000  0.5311430000000  0.5131630000000 1.0
C      1  0.4452180000000  0.5311430000000  0.4868370000000 1.0
C      1  0.5311430000000  0.5131630000000  0.5547820000000 1.0
C      1  0.5311430000000  0.4868370000000  0.4452180000000 1.0
C      1  0.4688570000000  0.4868370000000  0.5547820000000 1.0
C      1  0.5131630000000  0.5547820000000  0.4688570000000 1.0
C      1  0.4452180000000  0.5311430000000  0.5131630000000 1.0
C      1  0.4688570000000  0.4868370000000  0.4452180000000 1.0
C      1  0.4868370000000  0.5547820000000  0.5311430000000 1.0
C      1  0.4868370000000  0.4452180000000  0.4688570000000 1.0
C      1  0.5131630000000  0.4452180000000  0.5311430000000 1.0
C      1  0.5547820000000  0.5311430000000  0.4868370000000 1.0
C      1  0.5547820000000  0.4688570000000  0.5131630000000 1.0
C      1  0.4452180000000  0.4688570000000  0.4868370000000 1.0
C      1  0.5311430000000  0.4868370000000  0.5547820000000 1.0
C      1  0.5311430000000  0.5131630000000  0.4452180000000 1.0
C      1  0.4688570000000  0.5131630000000  0.5547820000000 1.0
C      1  0.4555730000000  0.5554800000000  0.4861840000000 1.0
C      1  0.5554800000000  0.4861840000000  0.4555730000000 1.0
C      1  0.4861840000000  0.4555730000000  0.5554800000000 1.0
C      1  0.5444270000000  0.5554800000000  0.5138160000000 1.0
C      1  0.5444270000000  0.4445200000000  0.4861840000000 1.0
C      1  0.4555730000000  0.4445200000000  0.5138160000000 1.0
C      1  0.4445200000000  0.4861840000000  0.5444270000000 1.0
C      1  0.4445200000000  0.5138160000000  0.4555730000000 1.0
C      1  0.5554800000000  0.5138160000000  0.5444270000000 1.0
C      1  0.5138160000000  0.4555730000000  0.4445200000000 1.0
C      1  0.5138160000000  0.5444270000000  0.5554800000000 1.0
C      1  0.4861840000000  0.5444270000000  0.4445200000000 1.0
C      1  0.4555730000000  0.4445200000000  0.4861840000000 1.0
C      1  0.5554800000000  0.5138160000000  0.4555730000000 1.0
C      1  0.4861840000000  0.5444270000000  0.5554800000000 1.0
C      1  0.5444270000000  0.4445200000000  0.5138160000000 1.0
C      1  0.5444270000000  0.5554800000000  0.4861840000000 1.0
C      1  0.4555730000000  0.5554800000000  0.5138160000000 1.0
C      1  0.4445200000000  0.5138160000000  0.5444270000000 1.0
C      1  0.4445200000000  0.4861840000000  0.4555730000000 1.0
C      1  0.5554800000000  0.4861840000000  0.5444270000000 1.0
C      1  0.5138160000000  0.5444270000000  0.4445200000000 1.0
C      1  0.5138160000000  0.4555730000000  0.5554800000000 1.0
C      1  0.4861840000000  0.4555730000000  0.4445200000000 1.0
C      1  0.4443350000000  0.5272270000000  0.5395870000000 1.0
C      1  0.5272270000000  0.5395870000000  0.4443350000000 1.0
C      1  0.5395870000000  0.4443350000000  0.5272270000000 1.0
C      1  0.5556650000000  0.5272270000000  0.4604130000000 1.0
C      1  0.5556650000000  0.4727730000000  0.5395870000000 1.0
C      1  0.4443350000000  0.4727730000000  0.4604130000000 1.0
C      1  0.4727730000000  0.5395870000000  0.5556650000000 1.0
C      1  0.4727730000000  0.4604130000000  0.4443350000000 1.0
C      1  0.5272270000000  0.4604130000000  0.5556650000000 1.0
C      1  0.4604130000000  0.4443350000000  0.4727730000000 1.0
C      1  0.4604130000000  0.5556650000000  0.5272270000000 1.0
C      1  0.5395870000000  0.5556650000000  0.4727730000000 1.0
C      1  0.4443350000000  0.4727730000000  0.5395870000000 1.0
C      1  0.5272270000000  0.4604130000000  0.4443350000000 1.0
C      1  0.5395870000000  0.5556650000000  0.5272270000000 1.0
C      1  0.5556650000000  0.4727730000000  0.4604130000000 1.0
C      1  0.5556650000000  0.5272270000000  0.5395870000000 1.0
C      1  0.4443350000000  0.5272270000000  0.4604130000000 1.0
C      1  0.4727730000000  0.4604130000000  0.5556650000000 1.0
C      1  0.4727730000000  0.5395870000000  0.4443350000000 1.0
C      1  0.5272270000000  0.5395870000000  0.5556650000000 1.0
C      1  0.4604130000000  0.5556650000000  0.4727730000000 1.0
C      1  0.4604130000000  0.4443350000000  0.5272270000000 1.0
C      1  0.5395870000000  0.4443350000000  0.4727730000000 1.0
C      1  0.4504840000000  0.5382740000000  0.4556410000000 1.0
C      1  0.5382740000000  0.4556410000000  0.4504840000000 1.0
C      1  0.4556410000000  0.4504840000000  0.5382740000000 1.0
C      1  0.5495160000000  0.5382740000000  0.5443590000000 1.0
C      1  0.5495160000000  0.4617260000000  0.4556410000000 1.0
C      1  0.4504840000000  0.4617260000000  0.5443590000000 1.0
C      1  0.4617260000000  0.4556410000000  0.5495160000000 1.0
C      1  0.4617260000000  0.5443590000000  0.4504840000000 1.0
C      1  0.5382740000000  0.5443590000000  0.5495160000000 1.0
C      1  0.5443590000000  0.4504840000000  0.4617260000000 1.0
C      1  0.5443590000000  0.5495160000000  0.5382740000000 1.0
C      1  0.4556410000000  0.5495160000000  0.4617260000000 1.0
C      1  0.4504840000000  0.4617260000000  0.4556410000000 1.0
C      1  0.5382740000000  0.5443590000000  0.4504840000000 1.0
C      1  0.4556410000000  0.5495160000000  0.5382740000000 1.0
C      1  0.5495160000000  0.4617260000000  0.5443590000000 1.0
C      1  0.5495160000000  0.5382740000000  0.4556410000000 1.0
C      1  0.4504840000000  0.5382740000000  0.5443590000000 1.0
C      1  0.4617260000000  0.5443590000000  0.5495160000000 1.0
C      1  0.4617260000000  0.4556410000000  0.4504840000000 1.0
C      1  0.5382740000000  0.4556410000000  0.5495160000000 1.0
C      1  0.5443590000000  0.5495160000000  0.4617260000000 1.0
C      1  0.5443590000000  0.4504840000000  0.5382740000000 1.0
C      1  0.4556410000000  0.4504840000000  0.4617260000000 1.0
C      1  0.5420230000000  0.5078080000000  0.4552590000000 1.0
C      1  0.5078080000000  0.4552590000000  0.5420230000000 1.0
C      1  0.4552590000000  0.5420230000000  0.5078080000000 1.0
C      1  0.4579770000000  0.5078080000000  0.5447410000000 1.0
C      1  0.4579770000000  0.4921920000000  0.4552590000000 1.0
C      1  0.5420230000000  0.4921920000000  0.5447410000000 1.0
C      1  0.4921920000000  0.4552590000000  0.4579770000000 1.0
C      1  0.4921920000000  0.5447410000000  0.5420230000000 1.0
C      1  0.5078080000000  0.5447410000000  0.4579770000000 1.0
C      1  0.5447410000000  0.5420230000000  0.4921920000000 1.0
C      1  0.5447410000000  0.4579770000000  0.5078080000000 1.0
C      1  0.4552590000000  0.4579770000000  0.4921920000000 1.0
C      1  0.5420230000000  0.4921920000000  0.4552590000000 1.0
C      1  0.5078080000000  0.5447410000000  0.5420230000000 1.0
C      1  0.4552590000000  0.4579770000000  0.5078080000000 1.0
C      1  0.4579770000000  0.4921920000000  0.5447410000000 1.0
C      1  0.4579770000000  0.5078080000000  0.4552590000000 1.0
C      1  0.5420230000000  0.5078080000000  0.5447410000000 1.0
C      1  0.4921920000000  0.5447410000000  0.4579770000000 1.0
C      1  0.4921920000000  0.4552590000000  0.5420230000000 1.0
C      1  0.5078080000000  0.4552590000000  0.4579770000000 1.0
C      1  0.5447410000000  0.4579770000000  0.4921920000000 1.0
C      1  0.5447410000000  0.5420230000000  0.5078080000000 1.0
C      1  0.4552590000000  0.5420230000000  0.4921920000000 1.0
C      1  0.4929970000000  0.4497060000000  0.4827240000000 1.0
C      1  0.4497060000000  0.4827240000000  0.4929970000000 1.0
C      1  0.4827240000000  0.4929970000000  0.4497060000000 1.0
C      1  0.5070030000000  0.4497060000000  0.5172760000000 1.0
C      1  0.5070030000000  0.5502940000000  0.4827240000000 1.0
C      1  0.4929970000000  0.5502940000000  0.5172760000000 1.0
C      1  0.5502940000000  0.4827240000000  0.5070030000000 1.0
C      1  0.5502940000000  0.5172760000000  0.4929970000000 1.0
C      1  0.4497060000000  0.5172760000000  0.5070030000000 1.0
C      1  0.5172760000000  0.4929970000000  0.5502940000000 1.0
C      1  0.5172760000000  0.5070030000000  0.4497060000000 1.0
C      1  0.4827240000000  0.5070030000000  0.5502940000000 1.0
C      1  0.4929970000000  0.5502940000000  0.4827240000000 1.0
C      1  0.4497060000000  0.5172760000000  0.4929970000000 1.0
C      1  0.4827240000000  0.5070030000000  0.4497060000000 1.0
C      1  0.5070030000000  0.5502940000000  0.5172760000000 1.0
C      1  0.5070030000000  0.4497060000000  0.4827240000000 1.0
C      1  0.4929970000000  0.4497060000000  0.5172760000000 1.0
C      1  0.5502940000000  0.5172760000000  0.5070030000000 1.0
C      1  0.5502940000000  0.4827240000000  0.4929970000000 1.0
C      1  0.4497060000000  0.4827240000000  0.5070030000000 1.0
C      1  0.5172760000000  0.5070030000000  0.5502940000000 1.0
C      1  0.5172760000000  0.4929970000000  0.4497060000000 1.0
C      1  0.4827240000000  0.4929970000000  0.5502940000000 1.0
END
