TITL C-1892073-1155-13 -8.08571743739718e-07 1000000 -2447.05651018847 0 0 360 (Th) n - 1
REM
REM in /nfs/bkarasulu/CARBON/AIRSS/Generating-Clusters/GAP-ML-2020/Higher-Symm/Selected-Sizes/TryA-Only_Ih-Symm/Larger-Clusters
REM
REM
REM
REM
REM
REM ./C.cell (2cf5181f0f1d4d5b12b972d32ad12063)
REM
REM compiler GCC version 9.2.1 20190827 (Red Hat 9.2.1-1)
REM options -cpp -mtune=generic -march=x86-64 -g -O0 -fpre-include=/usr/include/finclude/math-vector-fortran.h
REM seed -404246416 1974092915 1872319403 1486554047 514105432 -490517955 -546761933 1613350388 -1481332720 319659695 -1397217711 1422298127 -692829963 -845891613 -295533166 1863737057 1676883715 -678151061 1622049081 187948630 -1148388903 1052770567 -884213346 -2078750397 861803725 270493134 1147586813 -1269249589 -34856376 -1200155578 1535007032 -2019533682 1672368103
REM
CELL 1.54180  100.00000  100.00000  100.00000   90.00000   90.00000   90.00000
LATT -1
SFAC C  
C      1  0.4923780000000  0.4554530000000  0.5077900000000 1.0
C      1  0.4554530000000  0.5077900000000  0.4923780000000 1.0
C      1  0.5077900000000  0.4923780000000  0.4554530000000 1.0
C      1  0.5076220000000  0.5445470000000  0.5077900000000 1.0
C      1  0.4923780000000  0.5445470000000  0.4922100000000 1.0
C      1  0.5076220000000  0.4554530000000  0.4922100000000 1.0
C      1  0.5445470000000  0.4922100000000  0.4923780000000 1.0
C      1  0.4554530000000  0.4922100000000  0.5076220000000 1.0
C      1  0.5445470000000  0.5077900000000  0.5076220000000 1.0
C      1  0.4922100000000  0.5076220000000  0.4554530000000 1.0
C      1  0.5077900000000  0.5076220000000  0.5445470000000 1.0
C      1  0.4922100000000  0.4923780000000  0.5445470000000 1.0
C      1  0.4923780000000  0.4554530000000  0.4922100000000 1.0
C      1  0.4554530000000  0.5077900000000  0.5076220000000 1.0
C      1  0.5077900000000  0.4923780000000  0.5445470000000 1.0
C      1  0.5076220000000  0.5445470000000  0.4922100000000 1.0
C      1  0.4923780000000  0.5445470000000  0.5077900000000 1.0
C      1  0.5076220000000  0.4554530000000  0.5077900000000 1.0
C      1  0.5445470000000  0.4922100000000  0.5076220000000 1.0
C      1  0.4554530000000  0.4922100000000  0.4923780000000 1.0
C      1  0.5445470000000  0.5077900000000  0.4923780000000 1.0
C      1  0.4922100000000  0.5076220000000  0.5445470000000 1.0
C      1  0.5077900000000  0.5076220000000  0.4554530000000 1.0
C      1  0.4922100000000  0.4923780000000  0.4554530000000 1.0
C      1  0.4150920000000  0.4752680000000  0.5167380000000 1.0
C      1  0.4752680000000  0.5167380000000  0.4150920000000 1.0
C      1  0.5167380000000  0.4150920000000  0.4752680000000 1.0
C      1  0.5849080000000  0.5247320000000  0.5167380000000 1.0
C      1  0.4150920000000  0.5247320000000  0.4832620000000 1.0
C      1  0.5849080000000  0.4752680000000  0.4832620000000 1.0
C      1  0.5247320000000  0.4832620000000  0.4150920000000 1.0
C      1  0.4752680000000  0.4832620000000  0.5849080000000 1.0
C      1  0.5247320000000  0.5167380000000  0.5849080000000 1.0
C      1  0.4832620000000  0.5849080000000  0.4752680000000 1.0
C      1  0.5167380000000  0.5849080000000  0.5247320000000 1.0
C      1  0.4832620000000  0.4150920000000  0.5247320000000 1.0
C      1  0.4150920000000  0.4752680000000  0.4832620000000 1.0
C      1  0.4752680000000  0.5167380000000  0.5849080000000 1.0
C      1  0.5167380000000  0.4150920000000  0.5247320000000 1.0
C      1  0.5849080000000  0.5247320000000  0.4832620000000 1.0
C      1  0.4150920000000  0.5247320000000  0.5167380000000 1.0
C      1  0.5849080000000  0.4752680000000  0.5167380000000 1.0
C      1  0.5247320000000  0.4832620000000  0.5849080000000 1.0
C      1  0.4752680000000  0.4832620000000  0.4150920000000 1.0
C      1  0.5247320000000  0.5167380000000  0.4150920000000 1.0
C      1  0.4832620000000  0.5849080000000  0.5247320000000 1.0
C      1  0.5167380000000  0.5849080000000  0.4752680000000 1.0
C      1  0.4832620000000  0.4150920000000  0.4752680000000 1.0
C      1  0.5286950000000  0.4927050000000  0.5556880000000 1.0
C      1  0.4927050000000  0.5556880000000  0.5286950000000 1.0
C      1  0.5556880000000  0.5286950000000  0.4927050000000 1.0
C      1  0.4713050000000  0.5072950000000  0.5556880000000 1.0
C      1  0.5286950000000  0.5072950000000  0.4443120000000 1.0
C      1  0.4713050000000  0.4927050000000  0.4443120000000 1.0
C      1  0.5072950000000  0.4443120000000  0.5286950000000 1.0
C      1  0.4927050000000  0.4443120000000  0.4713050000000 1.0
C      1  0.5072950000000  0.5556880000000  0.4713050000000 1.0
C      1  0.4443120000000  0.4713050000000  0.4927050000000 1.0
C      1  0.5556880000000  0.4713050000000  0.5072950000000 1.0
C      1  0.4443120000000  0.5286950000000  0.5072950000000 1.0
C      1  0.5286950000000  0.4927050000000  0.4443120000000 1.0
C      1  0.4927050000000  0.5556880000000  0.4713050000000 1.0
C      1  0.5556880000000  0.5286950000000  0.5072950000000 1.0
C      1  0.4713050000000  0.5072950000000  0.4443120000000 1.0
C      1  0.5286950000000  0.5072950000000  0.5556880000000 1.0
C      1  0.4713050000000  0.4927050000000  0.5556880000000 1.0
C      1  0.5072950000000  0.4443120000000  0.4713050000000 1.0
C      1  0.4927050000000  0.4443120000000  0.5286950000000 1.0
C      1  0.5072950000000  0.5556880000000  0.5286950000000 1.0
C      1  0.4443120000000  0.4713050000000  0.5072950000000 1.0
C      1  0.5556880000000  0.4713050000000  0.4927050000000 1.0
C      1  0.4443120000000  0.5286950000000  0.4927050000000 1.0
C      1  0.5070860000000  0.5425650000000  0.5360470000000 1.0
C      1  0.5425650000000  0.5360470000000  0.5070860000000 1.0
C      1  0.5360470000000  0.5070860000000  0.5425650000000 1.0
C      1  0.4929140000000  0.4574350000000  0.5360470000000 1.0
C      1  0.5070860000000  0.4574350000000  0.4639530000000 1.0
C      1  0.4929140000000  0.5425650000000  0.4639530000000 1.0
C      1  0.4574350000000  0.4639530000000  0.5070860000000 1.0
C      1  0.5425650000000  0.4639530000000  0.4929140000000 1.0
C      1  0.4574350000000  0.5360470000000  0.4929140000000 1.0
C      1  0.4639530000000  0.4929140000000  0.5425650000000 1.0
C      1  0.5360470000000  0.4929140000000  0.4574350000000 1.0
C      1  0.4639530000000  0.5070860000000  0.4574350000000 1.0
C      1  0.5070860000000  0.5425650000000  0.4639530000000 1.0
C      1  0.5425650000000  0.5360470000000  0.4929140000000 1.0
C      1  0.5360470000000  0.5070860000000  0.4574350000000 1.0
C      1  0.4929140000000  0.4574350000000  0.4639530000000 1.0
C      1  0.5070860000000  0.4574350000000  0.5360470000000 1.0
C      1  0.4929140000000  0.5425650000000  0.5360470000000 1.0
C      1  0.4574350000000  0.4639530000000  0.4929140000000 1.0
C      1  0.5425650000000  0.4639530000000  0.5070860000000 1.0
C      1  0.4574350000000  0.5360470000000  0.5070860000000 1.0
C      1  0.4639530000000  0.4929140000000  0.4574350000000 1.0
C      1  0.5360470000000  0.4929140000000  0.5425650000000 1.0
C      1  0.4639530000000  0.5070860000000  0.5425650000000 1.0
C      1  0.5189260000000  0.4653940000000  0.5073770000000 1.0
C      1  0.4653940000000  0.5073770000000  0.5189260000000 1.0
C      1  0.5073770000000  0.5189260000000  0.4653940000000 1.0
C      1  0.4810740000000  0.5346060000000  0.5073770000000 1.0
C      1  0.5189260000000  0.5346060000000  0.4926230000000 1.0
C      1  0.4810740000000  0.4653940000000  0.4926230000000 1.0
C      1  0.5346060000000  0.4926230000000  0.5189260000000 1.0
C      1  0.4653940000000  0.4926230000000  0.4810740000000 1.0
C      1  0.5346060000000  0.5073770000000  0.4810740000000 1.0
C      1  0.4926230000000  0.4810740000000  0.4653940000000 1.0
C      1  0.5073770000000  0.4810740000000  0.5346060000000 1.0
C      1  0.4926230000000  0.5189260000000  0.5346060000000 1.0
C      1  0.5189260000000  0.4653940000000  0.4926230000000 1.0
C      1  0.4653940000000  0.5073770000000  0.4810740000000 1.0
C      1  0.5073770000000  0.5189260000000  0.5346060000000 1.0
C      1  0.4810740000000  0.5346060000000  0.4926230000000 1.0
C      1  0.5189260000000  0.5346060000000  0.5073770000000 1.0
C      1  0.4810740000000  0.4653940000000  0.5073770000000 1.0
C      1  0.5346060000000  0.4926230000000  0.4810740000000 1.0
C      1  0.4653940000000  0.4926230000000  0.5189260000000 1.0
C      1  0.5346060000000  0.5073770000000  0.5189260000000 1.0
C      1  0.4926230000000  0.4810740000000  0.5346060000000 1.0
C      1  0.5073770000000  0.4810740000000  0.4653940000000 1.0
C      1  0.4926230000000  0.5189260000000  0.4653940000000 1.0
C      1  0.4759530000000  0.4252230000000  0.4727300000000 1.0
C      1  0.4252230000000  0.4727300000000  0.4759530000000 1.0
C      1  0.4727300000000  0.4759530000000  0.4252230000000 1.0
C      1  0.5240470000000  0.5747770000000  0.4727300000000 1.0
C      1  0.4759530000000  0.5747770000000  0.5272700000000 1.0
C      1  0.5240470000000  0.4252230000000  0.5272700000000 1.0
C      1  0.5747770000000  0.5272700000000  0.4759530000000 1.0
C      1  0.4252230000000  0.5272700000000  0.5240470000000 1.0
C      1  0.5747770000000  0.4727300000000  0.5240470000000 1.0
C      1  0.5272700000000  0.5240470000000  0.4252230000000 1.0
C      1  0.4727300000000  0.5240470000000  0.5747770000000 1.0
C      1  0.5272700000000  0.4759530000000  0.5747770000000 1.0
C      1  0.4759530000000  0.4252230000000  0.5272700000000 1.0
C      1  0.4252230000000  0.4727300000000  0.5240470000000 1.0
C      1  0.4727300000000  0.4759530000000  0.5747770000000 1.0
C      1  0.5240470000000  0.5747770000000  0.5272700000000 1.0
C      1  0.4759530000000  0.5747770000000  0.4727300000000 1.0
C      1  0.5240470000000  0.4252230000000  0.4727300000000 1.0
C      1  0.5747770000000  0.5272700000000  0.5240470000000 1.0
C      1  0.4252230000000  0.5272700000000  0.4759530000000 1.0
C      1  0.5747770000000  0.4727300000000  0.4759530000000 1.0
C      1  0.5272700000000  0.5240470000000  0.5747770000000 1.0
C      1  0.4727300000000  0.5240470000000  0.4252230000000 1.0
C      1  0.5272700000000  0.4759530000000  0.4252230000000 1.0
C      1  0.4935260000000  0.5646870000000  0.4423820000000 1.0
C      1  0.5646870000000  0.4423820000000  0.4935260000000 1.0
C      1  0.4423820000000  0.4935260000000  0.5646870000000 1.0
C      1  0.5064740000000  0.4353130000000  0.4423820000000 1.0
C      1  0.4935260000000  0.4353130000000  0.5576180000000 1.0
C      1  0.5064740000000  0.5646870000000  0.5576180000000 1.0
C      1  0.4353130000000  0.5576180000000  0.4935260000000 1.0
C      1  0.5646870000000  0.5576180000000  0.5064740000000 1.0
C      1  0.4353130000000  0.4423820000000  0.5064740000000 1.0
C      1  0.5576180000000  0.5064740000000  0.5646870000000 1.0
C      1  0.4423820000000  0.5064740000000  0.4353130000000 1.0
C      1  0.5576180000000  0.4935260000000  0.4353130000000 1.0
C      1  0.4935260000000  0.5646870000000  0.5576180000000 1.0
C      1  0.5646870000000  0.4423820000000  0.5064740000000 1.0
C      1  0.4423820000000  0.4935260000000  0.4353130000000 1.0
C      1  0.5064740000000  0.4353130000000  0.5576180000000 1.0
C      1  0.4935260000000  0.4353130000000  0.4423820000000 1.0
C      1  0.5064740000000  0.5646870000000  0.4423820000000 1.0
C      1  0.4353130000000  0.5576180000000  0.5064740000000 1.0
C      1  0.5646870000000  0.5576180000000  0.4935260000000 1.0
C      1  0.4353130000000  0.4423820000000  0.4935260000000 1.0
C      1  0.5576180000000  0.5064740000000  0.4353130000000 1.0
C      1  0.4423820000000  0.5064740000000  0.5646870000000 1.0
C      1  0.5576180000000  0.4935260000000  0.5646870000000 1.0
C      1  0.4929070000000  0.5124860000000  0.5697070000000 1.0
C      1  0.5124860000000  0.5697070000000  0.4929070000000 1.0
C      1  0.5697070000000  0.4929070000000  0.5124860000000 1.0
C      1  0.5070930000000  0.4875140000000  0.5697070000000 1.0
C      1  0.4929070000000  0.4875140000000  0.4302930000000 1.0
C      1  0.5070930000000  0.5124860000000  0.4302930000000 1.0
C      1  0.4875140000000  0.4302930000000  0.4929070000000 1.0
C      1  0.5124860000000  0.4302930000000  0.5070930000000 1.0
C      1  0.4875140000000  0.5697070000000  0.5070930000000 1.0
C      1  0.4302930000000  0.5070930000000  0.5124860000000 1.0
C      1  0.5697070000000  0.5070930000000  0.4875140000000 1.0
C      1  0.4302930000000  0.4929070000000  0.4875140000000 1.0
C      1  0.4929070000000  0.5124860000000  0.4302930000000 1.0
C      1  0.5124860000000  0.5697070000000  0.5070930000000 1.0
C      1  0.5697070000000  0.4929070000000  0.4875140000000 1.0
C      1  0.5070930000000  0.4875140000000  0.4302930000000 1.0
C      1  0.4929070000000  0.4875140000000  0.5697070000000 1.0
C      1  0.5070930000000  0.5124860000000  0.5697070000000 1.0
C      1  0.4875140000000  0.4302930000000  0.5070930000000 1.0
C      1  0.5124860000000  0.4302930000000  0.4929070000000 1.0
C      1  0.4875140000000  0.5697070000000  0.4929070000000 1.0
C      1  0.4302930000000  0.5070930000000  0.4875140000000 1.0
C      1  0.5697070000000  0.5070930000000  0.5124860000000 1.0
C      1  0.4302930000000  0.4929070000000  0.5124860000000 1.0
C      1  0.4852020000000  0.5071710000000  0.4188880000000 1.0
C      1  0.5071710000000  0.4188880000000  0.4852020000000 1.0
C      1  0.4188880000000  0.4852020000000  0.5071710000000 1.0
C      1  0.5147980000000  0.4928290000000  0.4188880000000 1.0
C      1  0.4852020000000  0.4928290000000  0.5811120000000 1.0
C      1  0.5147980000000  0.5071710000000  0.5811120000000 1.0
C      1  0.4928290000000  0.5811120000000  0.4852020000000 1.0
C      1  0.5071710000000  0.5811120000000  0.5147980000000 1.0
C      1  0.4928290000000  0.4188880000000  0.5147980000000 1.0
C      1  0.5811120000000  0.5147980000000  0.5071710000000 1.0
C      1  0.4188880000000  0.5147980000000  0.4928290000000 1.0
C      1  0.5811120000000  0.4852020000000  0.4928290000000 1.0
C      1  0.4852020000000  0.5071710000000  0.5811120000000 1.0
C      1  0.5071710000000  0.4188880000000  0.5147980000000 1.0
C      1  0.4188880000000  0.4852020000000  0.4928290000000 1.0
C      1  0.5147980000000  0.4928290000000  0.5811120000000 1.0
C      1  0.4852020000000  0.4928290000000  0.4188880000000 1.0
C      1  0.5147980000000  0.5071710000000  0.4188880000000 1.0
C      1  0.4928290000000  0.5811120000000  0.5147980000000 1.0
C      1  0.5071710000000  0.5811120000000  0.4852020000000 1.0
C      1  0.4928290000000  0.4188880000000  0.4852020000000 1.0
C      1  0.5811120000000  0.5147980000000  0.4928290000000 1.0
C      1  0.4188880000000  0.5147980000000  0.5071710000000 1.0
C      1  0.5811120000000  0.4852020000000  0.5071710000000 1.0
C      1  0.5609270000000  0.4551600000000  0.5284400000000 1.0
C      1  0.4551600000000  0.5284400000000  0.5609270000000 1.0
C      1  0.5284400000000  0.5609270000000  0.4551600000000 1.0
C      1  0.4390730000000  0.5448400000000  0.5284400000000 1.0
C      1  0.5609270000000  0.5448400000000  0.4715600000000 1.0
C      1  0.4390730000000  0.4551600000000  0.4715600000000 1.0
C      1  0.5448400000000  0.4715600000000  0.5609270000000 1.0
C      1  0.4551600000000  0.4715600000000  0.4390730000000 1.0
C      1  0.5448400000000  0.5284400000000  0.4390730000000 1.0
C      1  0.4715600000000  0.4390730000000  0.4551600000000 1.0
C      1  0.5284400000000  0.4390730000000  0.5448400000000 1.0
C      1  0.4715600000000  0.5609270000000  0.5448400000000 1.0
C      1  0.5609270000000  0.4551600000000  0.4715600000000 1.0
C      1  0.4551600000000  0.5284400000000  0.4390730000000 1.0
C      1  0.5284400000000  0.5609270000000  0.5448400000000 1.0
C      1  0.4390730000000  0.5448400000000  0.4715600000000 1.0
C      1  0.5609270000000  0.5448400000000  0.5284400000000 1.0
C      1  0.4390730000000  0.4551600000000  0.5284400000000 1.0
C      1  0.5448400000000  0.4715600000000  0.4390730000000 1.0
C      1  0.4551600000000  0.4715600000000  0.5609270000000 1.0
C      1  0.5448400000000  0.5284400000000  0.5609270000000 1.0
C      1  0.4715600000000  0.4390730000000  0.5448400000000 1.0
C      1  0.5284400000000  0.4390730000000  0.4551600000000 1.0
C      1  0.4715600000000  0.5609270000000  0.4551600000000 1.0
C      1  0.5277020000000  0.5536730000000  0.4805370000000 1.0
C      1  0.5536730000000  0.4805370000000  0.5277020000000 1.0
C      1  0.4805370000000  0.5277020000000  0.5536730000000 1.0
C      1  0.4722980000000  0.4463270000000  0.4805370000000 1.0
C      1  0.5277020000000  0.4463270000000  0.5194630000000 1.0
C      1  0.4722980000000  0.5536730000000  0.5194630000000 1.0
C      1  0.4463270000000  0.5194630000000  0.5277020000000 1.0
C      1  0.5536730000000  0.5194630000000  0.4722980000000 1.0
C      1  0.4463270000000  0.4805370000000  0.4722980000000 1.0
C      1  0.5194630000000  0.4722980000000  0.5536730000000 1.0
C      1  0.4805370000000  0.4722980000000  0.4463270000000 1.0
C      1  0.5194630000000  0.5277020000000  0.4463270000000 1.0
C      1  0.5277020000000  0.5536730000000  0.5194630000000 1.0
C      1  0.5536730000000  0.4805370000000  0.4722980000000 1.0
C      1  0.4805370000000  0.5277020000000  0.4463270000000 1.0
C      1  0.4722980000000  0.4463270000000  0.5194630000000 1.0
C      1  0.5277020000000  0.4463270000000  0.4805370000000 1.0
C      1  0.4722980000000  0.5536730000000  0.4805370000000 1.0
C      1  0.4463270000000  0.5194630000000  0.4722980000000 1.0
C      1  0.5536730000000  0.5194630000000  0.5277020000000 1.0
C      1  0.4463270000000  0.4805370000000  0.5277020000000 1.0
C      1  0.5194630000000  0.4722980000000  0.4463270000000 1.0
C      1  0.4805370000000  0.4722980000000  0.5536730000000 1.0
C      1  0.5194630000000  0.5277020000000  0.5536730000000 1.0
C      1  0.4686350000000  0.5409280000000  0.4858420000000 1.0
C      1  0.5409280000000  0.4858420000000  0.4686350000000 1.0
C      1  0.4858420000000  0.4686350000000  0.5409280000000 1.0
C      1  0.5313650000000  0.4590720000000  0.4858420000000 1.0
C      1  0.4686350000000  0.4590720000000  0.5141580000000 1.0
C      1  0.5313650000000  0.5409280000000  0.5141580000000 1.0
C      1  0.4590720000000  0.5141580000000  0.4686350000000 1.0
C      1  0.5409280000000  0.5141580000000  0.5313650000000 1.0
C      1  0.4590720000000  0.4858420000000  0.5313650000000 1.0
C      1  0.5141580000000  0.5313650000000  0.5409280000000 1.0
C      1  0.4858420000000  0.5313650000000  0.4590720000000 1.0
C      1  0.5141580000000  0.4686350000000  0.4590720000000 1.0
C      1  0.4686350000000  0.5409280000000  0.5141580000000 1.0
C      1  0.5409280000000  0.4858420000000  0.5313650000000 1.0
C      1  0.4858420000000  0.4686350000000  0.4590720000000 1.0
C      1  0.5313650000000  0.4590720000000  0.5141580000000 1.0
C      1  0.4686350000000  0.4590720000000  0.4858420000000 1.0
C      1  0.5313650000000  0.5409280000000  0.4858420000000 1.0
C      1  0.4590720000000  0.5141580000000  0.5313650000000 1.0
C      1  0.5409280000000  0.5141580000000  0.4686350000000 1.0
C      1  0.4590720000000  0.4858420000000  0.4686350000000 1.0
C      1  0.5141580000000  0.5313650000000  0.4590720000000 1.0
C      1  0.4858420000000  0.5313650000000  0.5409280000000 1.0
C      1  0.5141580000000  0.4686350000000  0.5409280000000 1.0
C      1  0.4689890000000  0.5300230000000  0.4370480000000 1.0
C      1  0.5300230000000  0.4370480000000  0.4689890000000 1.0
C      1  0.4370480000000  0.4689890000000  0.5300230000000 1.0
C      1  0.5310110000000  0.4699770000000  0.4370480000000 1.0
C      1  0.4689890000000  0.4699770000000  0.5629520000000 1.0
C      1  0.5310110000000  0.5300230000000  0.5629520000000 1.0
C      1  0.4699770000000  0.5629520000000  0.4689890000000 1.0
C      1  0.5300230000000  0.5629520000000  0.5310110000000 1.0
C      1  0.4699770000000  0.4370480000000  0.5310110000000 1.0
C      1  0.5629520000000  0.5310110000000  0.5300230000000 1.0
C      1  0.4370480000000  0.5310110000000  0.4699770000000 1.0
C      1  0.5629520000000  0.4689890000000  0.4699770000000 1.0
C      1  0.4689890000000  0.5300230000000  0.5629520000000 1.0
C      1  0.5300230000000  0.4370480000000  0.5310110000000 1.0
C      1  0.4370480000000  0.4689890000000  0.4699770000000 1.0
C      1  0.5310110000000  0.4699770000000  0.5629520000000 1.0
C      1  0.4689890000000  0.4699770000000  0.4370480000000 1.0
C      1  0.5310110000000  0.5300230000000  0.4370480000000 1.0
C      1  0.4699770000000  0.5629520000000  0.5310110000000 1.0
C      1  0.5300230000000  0.5629520000000  0.4689890000000 1.0
C      1  0.4699770000000  0.4370480000000  0.4689890000000 1.0
C      1  0.5629520000000  0.5310110000000  0.4699770000000 1.0
C      1  0.4370480000000  0.5310110000000  0.5300230000000 1.0
C      1  0.5629520000000  0.4689890000000  0.5300230000000 1.0
C      1  0.4468410000000  0.4812040000000  0.4362350000000 1.0
C      1  0.4812040000000  0.4362350000000  0.4468410000000 1.0
C      1  0.4362350000000  0.4468410000000  0.4812040000000 1.0
C      1  0.5531590000000  0.5187960000000  0.4362350000000 1.0
C      1  0.4468410000000  0.5187960000000  0.5637650000000 1.0
C      1  0.5531590000000  0.4812040000000  0.5637650000000 1.0
C      1  0.5187960000000  0.5637650000000  0.4468410000000 1.0
C      1  0.4812040000000  0.5637650000000  0.5531590000000 1.0
C      1  0.5187960000000  0.4362350000000  0.5531590000000 1.0
C      1  0.5637650000000  0.5531590000000  0.4812040000000 1.0
C      1  0.4362350000000  0.5531590000000  0.5187960000000 1.0
C      1  0.5637650000000  0.4468410000000  0.5187960000000 1.0
C      1  0.4468410000000  0.4812040000000  0.5637650000000 1.0
C      1  0.4812040000000  0.4362350000000  0.5531590000000 1.0
C      1  0.4362350000000  0.4468410000000  0.5187960000000 1.0
C      1  0.5531590000000  0.5187960000000  0.5637650000000 1.0
C      1  0.4468410000000  0.5187960000000  0.4362350000000 1.0
C      1  0.5531590000000  0.4812040000000  0.4362350000000 1.0
C      1  0.5187960000000  0.5637650000000  0.5531590000000 1.0
C      1  0.4812040000000  0.5637650000000  0.4468410000000 1.0
C      1  0.5187960000000  0.4362350000000  0.4468410000000 1.0
C      1  0.5637650000000  0.5531590000000  0.5187960000000 1.0
C      1  0.4362350000000  0.5531590000000  0.4812040000000 1.0
C      1  0.5637650000000  0.4468410000000  0.4812040000000 1.0
C      1  0.5136740000000  0.5568400000000  0.5149350000000 1.0
C      1  0.5568400000000  0.5149350000000  0.5136740000000 1.0
C      1  0.5149350000000  0.5136740000000  0.5568400000000 1.0
C      1  0.4863260000000  0.4431600000000  0.5149350000000 1.0
C      1  0.5136740000000  0.4431600000000  0.4850650000000 1.0
C      1  0.4863260000000  0.5568400000000  0.4850650000000 1.0
C      1  0.4431600000000  0.4850650000000  0.5136740000000 1.0
C      1  0.5568400000000  0.4850650000000  0.4863260000000 1.0
C      1  0.4431600000000  0.5149350000000  0.4863260000000 1.0
C      1  0.4850650000000  0.4863260000000  0.5568400000000 1.0
C      1  0.5149350000000  0.4863260000000  0.4431600000000 1.0
C      1  0.4850650000000  0.5136740000000  0.4431600000000 1.0
C      1  0.5136740000000  0.5568400000000  0.4850650000000 1.0
C      1  0.5568400000000  0.5149350000000  0.4863260000000 1.0
C      1  0.5149350000000  0.5136740000000  0.4431600000000 1.0
C      1  0.4863260000000  0.4431600000000  0.4850650000000 1.0
C      1  0.5136740000000  0.4431600000000  0.5149350000000 1.0
C      1  0.4863260000000  0.5568400000000  0.5149350000000 1.0
C      1  0.4431600000000  0.4850650000000  0.4863260000000 1.0
C      1  0.5568400000000  0.4850650000000  0.5136740000000 1.0
C      1  0.4431600000000  0.5149350000000  0.5136740000000 1.0
C      1  0.4850650000000  0.4863260000000  0.4431600000000 1.0
C      1  0.5149350000000  0.4863260000000  0.5568400000000 1.0
C      1  0.4850650000000  0.5136740000000  0.5568400000000 1.0
END
