TITL C-1887011-2105-20 -4.80174400497358e-07 1000000 -2841.6184112285 0 0 400 (C1) n - 1
REM
REM in /nfs/bkarasulu/CARBON/AIRSS/Generating-Clusters/GAP-ML-2020/Higher-Symm/Selected-Sizes/TryA-Only_Ih-Symm/Larger-Clusters
REM
REM
REM
REM
REM
REM ./C.cell (2cf5181f0f1d4d5b12b972d32ad12063)
REM
REM compiler GCC version 9.2.1 20190827 (Red Hat 9.2.1-1)
REM options -cpp -mtune=generic -march=x86-64 -g -O0 -fpre-include=/usr/include/finclude/math-vector-fortran.h
REM seed -1741678409 -168265545 648852661 -2089115046 -484641520 550341450 -54799163 1812435025 -754372297 -1315306809 761200236 -1448442399 -1198132984 2029696335 2116907521 -587480397 1299320051 677786520 -962387176 66252667 799366684 2115770075 -1419548662 1921570546 -1423743499 -492596908 1592701760 -1368590130 -566358164 -514575062 1657247024 1061037564 -112160989
REM
CELL 1.54180  100.00000  100.00000  100.00000   90.00000   90.00000   90.00000
LATT -1
SFAC C  
C      1  0.4634330000000  0.5104210000000  0.5282360000000 1.0
C      1  0.5071470000000  0.5297380000000  0.4610560000000 1.0
C      1  0.5295130000000  0.4611610000000  0.5075920000000 1.0
C      1  0.5403530000000  0.5084880000000  0.4719990000000 1.0
C      1  0.5406030000000  0.4939560000000  0.5317680000000 1.0
C      1  0.4620470000000  0.4902700000000  0.4727920000000 1.0
C      1  0.4929520000000  0.5283300000000  0.5388620000000 1.0
C      1  0.4918940000000  0.4712300000000  0.4615490000000 1.0
C      1  0.5131850000000  0.4708740000000  0.5369270000000 1.0
C      1  0.4690240000000  0.4604850000000  0.4943810000000 1.0
C      1  0.4717010000000  0.5388290000000  0.5064770000000 1.0
C      1  0.5298010000000  0.5379440000000  0.4886910000000 1.0
C      1  0.5300780000000  0.5079920000000  0.4626090000000 1.0
C      1  0.4634310000000  0.5278130000000  0.5107990000000 1.0
C      1  0.5068390000000  0.4604870000000  0.5299010000000 1.0
C      1  0.4716740000000  0.5061660000000  0.5393000000000 1.0
C      1  0.5297560000000  0.4874310000000  0.5381170000000 1.0
C      1  0.4695600000000  0.4943400000000  0.4607810000000 1.0
C      1  0.5412720000000  0.5304180000000  0.4936360000000 1.0
C      1  0.4618320000000  0.4726870000000  0.4903290000000 1.0
C      1  0.5380110000000  0.4714920000000  0.5107450000000 1.0
C      1  0.4914420000000  0.4610990000000  0.4714500000000 1.0
C      1  0.5132120000000  0.5371280000000  0.4713620000000 1.0
C      1  0.4931300000000  0.5384940000000  0.5288210000000 1.0
C      1  0.5437030000000  0.5567580000000  0.4632550000000 1.0
C      1  0.5539680000000  0.4639260000000  0.5455330000000 1.0
C      1  0.4639740000000  0.5447960000000  0.5551280000000 1.0
C      1  0.4539240000000  0.5544130000000  0.5343880000000 1.0
C      1  0.4525900000000  0.4448670000000  0.4655950000000 1.0
C      1  0.5436080000000  0.4446810000000  0.5342100000000 1.0
C      1  0.4439560000000  0.4663550000000  0.4565590000000 1.0
C      1  0.4443490000000  0.5336270000000  0.5439900000000 1.0
C      1  0.5548850000000  0.5364320000000  0.4536300000000 1.0
C      1  0.5336100000000  0.5447010000000  0.4443720000000 1.0
C      1  0.5336330000000  0.4538650000000  0.5552200000000 1.0
C      1  0.4623880000000  0.4544780000000  0.4446340000000 1.0
C      1  0.4639380000000  0.5549110000000  0.5449890000000 1.0
C      1  0.5439370000000  0.4637020000000  0.5558620000000 1.0
C      1  0.5545220000000  0.5472620000000  0.4632870000000 1.0
C      1  0.5332460000000  0.5555340000000  0.4537510000000 1.0
C      1  0.4622750000000  0.4441910000000  0.4547040000000 1.0
C      1  0.5336510000000  0.4443500000000  0.5444200000000 1.0
C      1  0.4527950000000  0.4653690000000  0.4453250000000 1.0
C      1  0.5440690000000  0.5350490000000  0.4444960000000 1.0
C      1  0.4539680000000  0.5341690000000  0.5546880000000 1.0
C      1  0.4443280000000  0.5436960000000  0.5338900000000 1.0
C      1  0.5537970000000  0.4545370000000  0.5347550000000 1.0
C      1  0.4438390000000  0.4561970000000  0.4666250000000 1.0
C      1  0.4368970000000  0.5165320000000  0.5275490000000 1.0
C      1  0.5176140000000  0.5277880000000  0.4368260000000 1.0
C      1  0.5279350000000  0.4366010000000  0.5174370000000 1.0
C      1  0.5647700000000  0.5217980000000  0.4691130000000 1.0
C      1  0.5634320000000  0.4808130000000  0.5305250000000 1.0
C      1  0.4360690000000  0.4833780000000  0.4729330000000 1.0
C      1  0.4800110000000  0.5297650000000  0.5637840000000 1.0
C      1  0.4790330000000  0.4698230000000  0.4373980000000 1.0
C      1  0.5171650000000  0.4701690000000  0.5634660000000 1.0
C      1  0.4679480000000  0.4365230000000  0.4812310000000 1.0
C      1  0.4693000000000  0.5631010000000  0.5188230000000 1.0
C      1  0.5276040000000  0.5646010000000  0.4805120000000 1.0
C      1  0.5285200000000  0.5174870000000  0.4372620000000 1.0
C      1  0.4368980000000  0.5272100000000  0.5168350000000 1.0
C      1  0.5173510000000  0.4362690000000  0.5280830000000 1.0
C      1  0.4693170000000  0.5187090000000  0.5636160000000 1.0
C      1  0.5280810000000  0.4805810000000  0.5641910000000 1.0
C      1  0.4682760000000  0.4809670000000  0.4370060000000 1.0
C      1  0.5644970000000  0.5332430000000  0.4794060000000 1.0
C      1  0.4360320000000  0.4726770000000  0.4836140000000 1.0
C      1  0.5628010000000  0.4709150000000  0.5192680000000 1.0
C      1  0.4786230000000  0.4367580000000  0.4700540000000 1.0
C      1  0.5165640000000  0.5634340000000  0.4703120000000 1.0
C      1  0.4800030000000  0.5634030000000  0.5298720000000 1.0
C      1  0.5207380000000  0.5773940000000  0.4856920000000 1.0
C      1  0.5775330000000  0.4846310000000  0.5257480000000 1.0
C      1  0.4870370000000  0.5218580000000  0.5745070000000 1.0
C      1  0.4768590000000  0.5739880000000  0.5116680000000 1.0
C      1  0.4758480000000  0.4254390000000  0.4877140000000 1.0
C      1  0.5222040000000  0.4235610000000  0.5119230000000 1.0
C      1  0.4217500000000  0.4871840000000  0.4773800000000 1.0
C      1  0.4238250000000  0.5113470000000  0.5218070000000 1.0
C      1  0.5758040000000  0.5154500000000  0.4772600000000 1.0
C      1  0.5125450000000  0.5215720000000  0.4238100000000 1.0
C      1  0.5112370000000  0.4759460000000  0.5763060000000 1.0
C      1  0.4863280000000  0.4774540000000  0.4265820000000 1.0
C      1  0.4868130000000  0.5741880000000  0.5219610000000 1.0
C      1  0.5216770000000  0.4859350000000  0.5769660000000 1.0
C      1  0.5758090000000  0.5262660000000  0.4867320000000 1.0
C      1  0.5104220000000  0.5763030000000  0.4756700000000 1.0
C      1  0.4857920000000  0.4257800000000  0.4776830000000 1.0
C      1  0.5121690000000  0.4231870000000  0.5220790000000 1.0
C      1  0.4763190000000  0.4873500000000  0.4259610000000 1.0
C      1  0.5228020000000  0.5116660000000  0.4243160000000 1.0
C      1  0.4769650000000  0.5116300000000  0.5744840000000 1.0
C      1  0.4238270000000  0.5214280000000  0.5116590000000 1.0
C      1  0.5764740000000  0.4759730000000  0.5143690000000 1.0
C      1  0.4217380000000  0.4771300000000  0.4874440000000 1.0
C      1  0.5642200000000  0.4993810000000  0.5496980000000 1.0
C      1  0.5024150000000  0.5442300000000  0.5607890000000 1.0
C      1  0.5446520000000  0.5678870000000  0.4992900000000 1.0
C      1  0.4349470000000  0.5022890000000  0.4569750000000 1.0
C      1  0.4386090000000  0.4962810000000  0.5433780000000 1.0
C      1  0.5628800000000  0.4989000000000  0.4548460000000 1.0
C      1  0.4973700000000  0.5438140000000  0.4369840000000 1.0
C      1  0.4965260000000  0.4521970000000  0.5621300000000 1.0
C      1  0.5006460000000  0.4549350000000  0.4391760000000 1.0
C      1  0.4543280000000  0.5601020000000  0.4963510000000 1.0
C      1  0.4511850000000  0.4343600000000  0.5034800000000 1.0
C      1  0.5454670000000  0.4375810000000  0.4972980000000 1.0
C      1  0.5461500000000  0.5004750000000  0.5647720000000 1.0
C      1  0.5605250000000  0.5503660000000  0.5008850000000 1.0
C      1  0.5025000000000  0.5604370000000  0.5440100000000 1.0
C      1  0.4512620000000  0.5030510000000  0.4345230000000 1.0
C      1  0.5455000000000  0.4976800000000  0.4387820000000 1.0
C      1  0.4543990000000  0.4961740000000  0.5605520000000 1.0
C      1  0.4385900000000  0.5428980000000  0.4965550000000 1.0
C      1  0.5621520000000  0.4544890000000  0.4980010000000 1.0
C      1  0.4349960000000  0.4568410000000  0.5025930000000 1.0
C      1  0.4960920000000  0.5615770000000  0.4521780000000 1.0
C      1  0.5006000000000  0.4372830000000  0.4543590000000 1.0
C      1  0.4973230000000  0.4366970000000  0.5445020000000 1.0
C      1  0.5384240000000  0.4458920000000  0.4793060000000 1.0
C      1  0.4452710000000  0.4766530000000  0.5373490000000 1.0
C      1  0.4777110000000  0.5390060000000  0.4433010000000 1.0
C      1  0.4576400000000  0.4402430000000  0.5235740000000 1.0
C      1  0.4639330000000  0.5477900000000  0.4817870000000 1.0
C      1  0.5413920000000  0.5559100000000  0.5177500000000 1.0
C      1  0.5523770000000  0.4836710000000  0.4643410000000 1.0
C      1  0.5588290000000  0.5187700000000  0.5424350000000 1.0
C      1  0.4425380000000  0.5148660000000  0.4569590000000 1.0
C      1  0.5189590000000  0.5353040000000  0.5503700000000 1.0
C      1  0.5200360000000  0.4602560000000  0.4466230000000 1.0
C      1  0.4841630000000  0.4623460000000  0.5490670000000 1.0
C      1  0.4775290000000  0.4429040000000  0.5398760000000 1.0
C      1  0.5398700000000  0.4787750000000  0.4463420000000 1.0
C      1  0.4451130000000  0.5370980000000  0.4768070000000 1.0
C      1  0.5156770000000  0.4477420000000  0.4641600000000 1.0
C      1  0.4842900000000  0.5482370000000  0.4627180000000 1.0
C      1  0.5206230000000  0.5518360000000  0.5350730000000 1.0
C      1  0.4639180000000  0.4813830000000  0.5484490000000 1.0
C      1  0.5396180000000  0.5169370000000  0.5538580000000 1.0
C      1  0.4578550000000  0.5229950000000  0.4404570000000 1.0
C      1  0.5639760000000  0.5332080000000  0.5190690000000 1.0
C      1  0.4426400000000  0.4568880000000  0.5151550000000 1.0
C      1  0.5537930000000  0.4621180000000  0.4805110000000 1.0
C      1  0.5306730000000  0.5184780000000  0.5645520000000 1.0
C      1  0.5206700000000  0.5639730000000  0.5283810000000 1.0
C      1  0.5726270000000  0.5233550000000  0.5237910000000 1.0
C      1  0.4671800000000  0.5219710000000  0.4299920000000 1.0
C      1  0.4709410000000  0.4793730000000  0.5603410000000 1.0
C      1  0.5314230000000  0.4783890000000  0.4350160000000 1.0
C      1  0.4805930000000  0.5602450000000  0.4692050000000 1.0
C      1  0.4778590000000  0.4309780000000  0.5321020000000 1.0
C      1  0.5187770000000  0.4357370000000  0.4702940000000 1.0
C      1  0.4327800000000  0.5303650000000  0.4771840000000 1.0
C      1  0.4314530000000  0.4672560000000  0.5205120000000 1.0
C      1  0.5651840000000  0.4703980000000  0.4803890000000 1.0
C      1  0.5709110000000  0.5164890000000  0.5356090000000 1.0
C      1  0.5311040000000  0.5658370000000  0.5184170000000 1.0
C      1  0.5201030000000  0.5283570000000  0.5625590000000 1.0
C      1  0.4313740000000  0.5202020000000  0.4674250000000 1.0
C      1  0.5641310000000  0.4818110000000  0.4715660000000 1.0
C      1  0.4328910000000  0.4769550000000  0.5307090000000 1.0
C      1  0.4708900000000  0.5596490000000  0.4795990000000 1.0
C      1  0.5302240000000  0.4345110000000  0.4789140000000 1.0
C      1  0.4670430000000  0.4298530000000  0.5225510000000 1.0
C      1  0.4780950000000  0.5312970000000  0.4313250000000 1.0
C      1  0.5204090000000  0.4688660000000  0.4355590000000 1.0
C      1  0.4807490000000  0.4690480000000  0.5610440000000 1.0
C      1  0.4903190000000  0.4510820000000  0.5020140000000 1.0
C      1  0.4521870000000  0.5047290000000  0.4864890000000 1.0
C      1  0.5024390000000  0.4908590000000  0.4521930000000 1.0
C      1  0.5137390000000  0.4516600000000  0.4973670000000 1.0
C      1  0.5161650000000  0.5480000000000  0.5024240000000 1.0
C      1  0.4927620000000  0.5477080000000  0.4978730000000 1.0
C      1  0.5498200000000  0.5038090000000  0.5158360000000 1.0
C      1  0.5489880000000  0.4983640000000  0.4926120000000 1.0
C      1  0.4530410000000  0.4959530000000  0.5147540000000 1.0
C      1  0.4985830000000  0.4844650000000  0.5468370000000 1.0
C      1  0.4969210000000  0.5142570000000  0.4517020000000 1.0
C      1  0.5031120000000  0.5079010000000  0.5482310000000 1.0
C      1  0.5010730000000  0.4513640000000  0.4913540000000 1.0
C      1  0.4914490000000  0.5013740000000  0.4517610000000 1.0
C      1  0.4520620000000  0.4862910000000  0.5049320000000 1.0
C      1  0.4960640000000  0.4510630000000  0.5148250000000 1.0
C      1  0.5033220000000  0.5481940000000  0.5086690000000 1.0
C      1  0.4985720000000  0.5466890000000  0.4850880000000 1.0
C      1  0.5158730000000  0.5017210000000  0.5477330000000 1.0
C      1  0.4925970000000  0.4971780000000  0.5479250000000 1.0
C      1  0.5150890000000  0.4970220000000  0.4525380000000 1.0
C      1  0.5485700000000  0.4859690000000  0.4992110000000 1.0
C      1  0.4531620000000  0.5144920000000  0.4962140000000 1.0
C      1  0.5494910000000  0.5091970000000  0.5028020000000 1.0
C      1  0.5327100000000  0.5735410000000  0.5058860000000 1.0
C      1  0.5742500000000  0.5032030000000  0.5398430000000 1.0
C      1  0.5074520000000  0.5323330000000  0.5681960000000 1.0
C      1  0.4666250000000  0.5668130000000  0.4913740000000 1.0
C      1  0.4642380000000  0.4267520000000  0.5085420000000 1.0
C      1  0.5340940000000  0.4292540000000  0.4918560000000 1.0
C      1  0.4252520000000  0.5071020000000  0.4665230000000 1.0
C      1  0.4291530000000  0.4909030000000  0.5333330000000 1.0
C      1  0.5698250000000  0.4944480000000  0.4676280000000 1.0
C      1  0.4920010000000  0.5332610000000  0.4278260000000 1.0
C      1  0.4914140000000  0.4640690000000  0.5694670000000 1.0
C      1  0.5066570000000  0.4665840000000  0.4316430000000 1.0
C      1  0.5073800000000  0.5684370000000  0.5324660000000 1.0
C      1  0.5340140000000  0.5060800000000  0.5717350000000 1.0
C      1  0.5672440000000  0.5386810000000  0.5061110000000 1.0
C      1  0.4908300000000  0.5689110000000  0.4639100000000 1.0
C      1  0.5059960000000  0.4304030000000  0.4665160000000 1.0
C      1  0.4917910000000  0.4274580000000  0.5340430000000 1.0
C      1  0.4642610000000  0.5080010000000  0.4268610000000 1.0
C      1  0.5346530000000  0.4916940000000  0.4301180000000 1.0
C      1  0.4667020000000  0.4912600000000  0.5673350000000 1.0
C      1  0.4291230000000  0.5328710000000  0.4911820000000 1.0
C      1  0.5704170000000  0.4662280000000  0.4932560000000 1.0
C      1  0.4252880000000  0.4663730000000  0.5074160000000 1.0
C      1  0.5420880000000  0.5223840000000  0.4381500000000 1.0
C      1  0.5217000000000  0.4372610000000  0.5418770000000 1.0
C      1  0.4380190000000  0.5410520000000  0.5213080000000 1.0
C      1  0.4555530000000  0.5217370000000  0.5622370000000 1.0
C      1  0.4543640000000  0.4776870000000  0.4374620000000 1.0
C      1  0.5417190000000  0.4758430000000  0.5632260000000 1.0
C      1  0.4748800000000  0.4367340000000  0.4563480000000 1.0
C      1  0.4766030000000  0.5624340000000  0.5435310000000 1.0
C      1  0.5206830000000  0.5618200000000  0.4562610000000 1.0
C      1  0.5622120000000  0.5467330000000  0.4755630000000 1.0
C      1  0.5610370000000  0.4570230000000  0.5227530000000 1.0
C      1  0.4380610000000  0.4587740000000  0.4793970000000 1.0
C      1  0.4380460000000  0.5210270000000  0.5413950000000 1.0
C      1  0.5416220000000  0.4378790000000  0.5218590000000 1.0
C      1  0.5216890000000  0.5416750000000  0.4374860000000 1.0
C      1  0.5630540000000  0.5244210000000  0.4553890000000 1.0
C      1  0.4381540000000  0.4791160000000  0.4590770000000 1.0
C      1  0.5613640000000  0.4758790000000  0.5440580000000 1.0
C      1  0.4540270000000  0.4369920000000  0.4779830000000 1.0
C      1  0.5411280000000  0.5643490000000  0.4751010000000 1.0
C      1  0.4555280000000  0.5618780000000  0.5219150000000 1.0
C      1  0.4766480000000  0.5433970000000  0.5626050000000 1.0
C      1  0.5211920000000  0.4561510000000  0.5618660000000 1.0
C      1  0.4750240000000  0.4562030000000  0.4373300000000 1.0
C      1  0.5099100000000  0.4479290000000  0.5601860000000 1.0
C      1  0.4486500000000  0.5593180000000  0.5094450000000 1.0
C      1  0.5611000000000  0.5116920000000  0.4487960000000 1.0
C      1  0.4874450000000  0.4490690000000  0.4394400000000 1.0
C      1  0.4893950000000  0.5503210000000  0.5603160000000 1.0
C      1  0.5101660000000  0.5495400000000  0.4383780000000 1.0
C      1  0.5496300000000  0.5648580000000  0.4861990000000 1.0
C      1  0.5500770000000  0.4391870000000  0.5106450000000 1.0
C      1  0.4466790000000  0.4387390000000  0.4904230000000 1.0
C      1  0.4394560000000  0.5093600000000  0.5491050000000 1.0
C      1  0.4385050000000  0.4901490000000  0.4505390000000 1.0
C      1  0.5607660000000  0.4863490000000  0.5533610000000 1.0
C      1  0.5600290000000  0.4492590000000  0.5110430000000 1.0
C      1  0.5095340000000  0.5598960000000  0.4480020000000 1.0
C      1  0.4486760000000  0.5092480000000  0.5597270000000 1.0
C      1  0.4383950000000  0.4502770000000  0.4904790000000 1.0
C      1  0.5596550000000  0.5548070000000  0.4871500000000 1.0
C      1  0.4394340000000  0.5486950000000  0.5096050000000 1.0
C      1  0.4894180000000  0.5601860000000  0.5503130000000 1.0
C      1  0.5102740000000  0.4381890000000  0.5499280000000 1.0
C      1  0.4873670000000  0.4386990000000  0.4490540000000 1.0
C      1  0.5504740000000  0.5110650000000  0.4394980000000 1.0
C      1  0.4469080000000  0.4900300000000  0.4390980000000 1.0
C      1  0.5502250000000  0.4869690000000  0.5627860000000 1.0
C      1  0.4161930000000  0.4731540000000  0.4990790000000 1.0
C      1  0.4738140000000  0.4997780000000  0.4217510000000 1.0
C      1  0.4985870000000  0.4225990000000  0.4752340000000 1.0
C      1  0.5790880000000  0.4734200000000  0.5015630000000 1.0
C      1  0.5757860000000  0.5293780000000  0.4998070000000 1.0
C      1  0.4206410000000  0.5252340000000  0.4992890000000 1.0
C      1  0.5258360000000  0.4982890000000  0.5801380000000 1.0
C      1  0.5269750000000  0.4993670000000  0.4213950000000 1.0
C      1  0.4747300000000  0.4984860000000  0.5761550000000 1.0
C      1  0.4998980000000  0.4196030000000  0.5258470000000 1.0
C      1  0.4981560000000  0.5787050000000  0.4709270000000 1.0
C      1  0.4995910000000  0.5769230000000  0.5247440000000 1.0
C      1  0.4992700000000  0.4752430000000  0.4238600000000 1.0
C      1  0.4161770000000  0.4987730000000  0.4733360000000 1.0
C      1  0.4736630000000  0.4214960000000  0.5002990000000 1.0
C      1  0.4989470000000  0.4713570000000  0.5789660000000 1.0
C      1  0.5000080000000  0.5243310000000  0.5768320000000 1.0
C      1  0.5002460000000  0.5250950000000  0.4201030000000 1.0
C      1  0.5828370000000  0.4947230000000  0.5326070000000 1.0
C      1  0.4206420000000  0.4990090000000  0.5257210000000 1.0
C      1  0.5779230000000  0.5021610000000  0.4759820000000 1.0
C      1  0.5264320000000  0.4205920000000  0.4996590000000 1.0
C      1  0.4746770000000  0.5756840000000  0.4985240000000 1.0
C      1  0.5236930000000  0.5812130000000  0.4982640000000 1.0
C      1  0.4778320000000  0.4660820000000  0.5371890000000 1.0
C      1  0.4676160000000  0.5359050000000  0.4757350000000 1.0
C      1  0.5406560000000  0.4783110000000  0.4692040000000 1.0
C      1  0.5231720000000  0.4668430000000  0.4579830000000 1.0
C      1  0.5263800000000  0.5311440000000  0.5395770000000 1.0
C      1  0.4744590000000  0.5311720000000  0.4540970000000 1.0
C      1  0.5403380000000  0.5432520000000  0.5232180000000 1.0
C      1  0.5324730000000  0.4576910000000  0.4770610000000 1.0
C      1  0.4638700000000  0.4525480000000  0.5235660000000 1.0
C      1  0.4557650000000  0.4729230000000  0.5295930000000 1.0
C      1  0.4551200000000  0.5195160000000  0.4630290000000 1.0
C      1  0.5489570000000  0.5249510000000  0.5354040000000 1.0
C      1  0.5417490000000  0.4677200000000  0.4779130000000 1.0
C      1  0.4779960000000  0.5363370000000  0.4665180000000 1.0
C      1  0.4677240000000  0.4755480000000  0.5364770000000 1.0
C      1  0.4553020000000  0.4629110000000  0.5198270000000 1.0
C      1  0.5510260000000  0.5340060000000  0.5250830000000 1.0
C      1  0.4555580000000  0.5293330000000  0.4729480000000 1.0
C      1  0.5284740000000  0.5415850000000  0.5306490000000 1.0
C      1  0.4740810000000  0.4537180000000  0.5321900000000 1.0
C      1  0.5209900000000  0.4593490000000  0.4695440000000 1.0
C      1  0.5334570000000  0.4756230000000  0.4577250000000 1.0
C      1  0.4640490000000  0.5227400000000  0.4528250000000 1.0
C      1  0.5368860000000  0.5225590000000  0.5416760000000 1.0
C      1  0.5227910000000  0.4890310000000  0.5006540000000 1.0
C      1  0.4898190000000  0.4997940000000  0.5227350000000 1.0
C      1  0.5014610000000  0.5214040000000  0.4891980000000 1.0
C      1  0.4783360000000  0.4885880000000  0.5004530000000 1.0
C      1  0.4791620000000  0.5114510000000  0.5001130000000 1.0
C      1  0.5243480000000  0.5117060000000  0.5006650000000 1.0
C      1  0.5123280000000  0.4995290000000  0.4783320000000 1.0
C      1  0.5123400000000  0.5001860000000  0.5220060000000 1.0
C      1  0.4890750000000  0.4997120000000  0.4773220000000 1.0
C      1  0.5015030000000  0.5226320000000  0.5118560000000 1.0
C      1  0.5002060000000  0.4770360000000  0.4885920000000 1.0
C      1  0.5001120000000  0.4772410000000  0.5110630000000 1.0
C      1  0.5010190000000  0.4887790000000  0.5215090000000 1.0
C      1  0.5237260000000  0.5001280000000  0.4894230000000 1.0
C      1  0.4901490000000  0.5225190000000  0.5001940000000 1.0
C      1  0.5006500000000  0.4881590000000  0.4777170000000 1.0
C      1  0.5008850000000  0.5107270000000  0.4778160000000 1.0
C      1  0.5011850000000  0.5114000000000  0.5228820000000 1.0
C      1  0.4790080000000  0.4998490000000  0.5116510000000 1.0
C      1  0.5237950000000  0.5006750000000  0.5119520000000 1.0
C      1  0.4785200000000  0.5003050000000  0.4887640000000 1.0
C      1  0.5130530000000  0.5220570000000  0.5007100000000 1.0
C      1  0.4884870000000  0.4768620000000  0.5000510000000 1.0
C      1  0.5114450000000  0.4776750000000  0.5000780000000 1.0
C      1  0.5016500000000  0.4808330000000  0.5334640000000 1.0
C      1  0.4836650000000  0.5362320000000  0.4993870000000 1.0
C      1  0.5378830000000  0.5002150000000  0.4833550000000 1.0
C      1  0.5009350000000  0.4818190000000  0.4637550000000 1.0
C      1  0.5013520000000  0.5172670000000  0.5368610000000 1.0
C      1  0.4987320000000  0.5188350000000  0.4654920000000 1.0
C      1  0.5205570000000  0.5346290000000  0.5003180000000 1.0
C      1  0.5188460000000  0.4651350000000  0.4985430000000 1.0
C      1  0.4814490000000  0.4629510000000  0.5009740000000 1.0
C      1  0.4664000000000  0.4990520000000  0.5189940000000 1.0
C      1  0.4654000000000  0.5013530000000  0.4820740000000 1.0
C      1  0.5361510000000  0.5026560000000  0.5206750000000 1.0
C      1  0.5350990000000  0.4814970000000  0.5005910000000 1.0
C      1  0.5017890000000  0.5333930000000  0.4813240000000 1.0
C      1  0.4834560000000  0.4988720000000  0.5365230000000 1.0
C      1  0.4652420000000  0.4819680000000  0.5014720000000 1.0
C      1  0.5383020000000  0.5185680000000  0.5010880000000 1.0
C      1  0.4665200000000  0.5187570000000  0.4993150000000 1.0
C      1  0.5020060000000  0.5366160000000  0.5180260000000 1.0
C      1  0.4979420000000  0.4648880000000  0.5193520000000 1.0
C      1  0.5000100000000  0.4630140000000  0.4824470000000 1.0
C      1  0.5200320000000  0.4982330000000  0.4660010000000 1.0
C      1  0.4822480000000  0.5004550000000  0.4633090000000 1.0
C      1  0.5202540000000  0.4996530000000  0.5343610000000 1.0
C      1  0.4816310000000  0.4513990000000  0.4744020000000 1.0
C      1  0.4470790000000  0.4805290000000  0.4914160000000 1.0
C      1  0.4728710000000  0.4845100000000  0.4511140000000 1.0
C      1  0.5103920000000  0.4484210000000  0.5216490000000 1.0
C      1  0.5111580000000  0.5513840000000  0.4781870000000 1.0
C      1  0.4840520000000  0.5489100000000  0.5253970000000 1.0
C      1  0.5513140000000  0.4788890000000  0.5130000000000 1.0
C      1  0.5513500000000  0.5270540000000  0.4844270000000 1.0
C      1  0.4488210000000  0.5200640000000  0.5098260000000 1.0
C      1  0.5219700000000  0.4883180000000  0.5519760000000 1.0
C      1  0.5219650000000  0.5109810000000  0.4497900000000 1.0
C      1  0.4749250000000  0.5147660000000  0.5498590000000 1.0
C      1  0.4722570000000  0.4507830000000  0.4845320000000 1.0
C      1  0.4822900000000  0.4744680000000  0.4516970000000 1.0
C      1  0.4470870000000  0.4912660000000  0.4807720000000 1.0
C      1  0.5210110000000  0.4488220000000  0.5110170000000 1.0
C      1  0.4749130000000  0.5493360000000  0.5151170000000 1.0
C      1  0.5220730000000  0.5522050000000  0.4888270000000 1.0
C      1  0.5112150000000  0.4776040000000  0.5513760000000 1.0
C      1  0.4840880000000  0.5250350000000  0.5493860000000 1.0
C      1  0.5110440000000  0.5213500000000  0.4491140000000 1.0
C      1  0.5524810000000  0.4896490000000  0.5235850000000 1.0
C      1  0.4487830000000  0.5095190000000  0.5203630000000 1.0
C      1  0.5509510000000  0.5173490000000  0.4747680000000 1.0
C      1  0.5513370000000  0.4487040000000  0.4884460000000 1.0
C      1  0.4496890000000  0.4873750000000  0.5482900000000 1.0
C      1  0.4883470000000  0.5490360000000  0.4478110000000 1.0
C      1  0.4496320000000  0.5477930000000  0.4876300000000 1.0
C      1  0.5514410000000  0.4893560000000  0.4499940000000 1.0
C      1  0.5531850000000  0.5095160000000  0.5539660000000 1.0
C      1  0.4467810000000  0.5143170000000  0.4418530000000 1.0
C      1  0.4883590000000  0.4475250000000  0.5497990000000 1.0
C      1  0.5094220000000  0.4490220000000  0.4498460000000 1.0
C      1  0.5112290000000  0.5487170000000  0.5485330000000 1.0
C      1  0.5507110000000  0.5584440000000  0.5076320000000 1.0
C      1  0.4467280000000  0.4417530000000  0.5147040000000 1.0
C      1  0.4674820000000  0.5238290000000  0.5242330000000 1.0
C      1  0.5265550000000  0.5332260000000  0.4750600000000 1.0
C      1  0.4662550000000  0.4769680000000  0.4770870000000 1.0
C      1  0.5266040000000  0.4743930000000  0.5325160000000 1.0
END
