TITL C-1887013-2217-39 -4.39809537593478e-07 1000000 -1724.28855057212 0 0 260 (Th) n - 1
REM
REM in /nfs/bkarasulu/CARBON/AIRSS/Generating-Clusters/GAP-ML-2020/Higher-Symm/Selected-Sizes/TryA-Only_Ih-Symm/Larger-Clusters
REM
REM
REM
REM
REM
REM ./C.cell (2cf5181f0f1d4d5b12b972d32ad12063)
REM
REM compiler GCC version 9.2.1 20190827 (Red Hat 9.2.1-1)
REM options -cpp -mtune=generic -march=x86-64 -g -O0 -fpre-include=/usr/include/finclude/math-vector-fortran.h
REM seed -1919622080 -653340 -1427824713 687296840 2077166873 -967227820 1464459668 -721977374 -1566032505 -1846809846 -258139255 -755515393 -1149789498 1420901938 1597987369 688933912 1727100589 -1402424959 1614580256 1526607996 -727245080 -1371979233 -515794629 815384648 919521659 -1081166235 -1582317692 -236758438 -1388797679 -111657679 -1872494108 -1131855993 1421644576
REM
CELL 1.54180  100.00000  100.00000  100.00000   90.00000   90.00000   90.00000
LATT -1
SFAC C  
C      1  0.4528900000000  0.4826490000000  0.4478200000000 1.0
C      1  0.4829500000000  0.4472070000000  0.4532030000000 1.0
C      1  0.4475070000000  0.4525900000000  0.4832620000000 1.0
C      1  0.4528900000000  0.5167250000000  0.5527810000000 1.0
C      1  0.5470850000000  0.4826490000000  0.5527810000000 1.0
C      1  0.5470850000000  0.5167250000000  0.4478200000000 1.0
C      1  0.4829500000000  0.5521670000000  0.5473980000000 1.0
C      1  0.5170260000000  0.4472070000000  0.5473980000000 1.0
C      1  0.5170260000000  0.5521670000000  0.4532030000000 1.0
C      1  0.4475070000000  0.5467840000000  0.5173380000000 1.0
C      1  0.5524680000000  0.4525900000000  0.5173380000000 1.0
C      1  0.5524680000000  0.5467840000000  0.4832630000000 1.0
C      1  0.5470850000000  0.4826490000000  0.4478200000000 1.0
C      1  0.5170260000000  0.4472070000000  0.4532030000000 1.0
C      1  0.5524680000000  0.4525900000000  0.4832620000000 1.0
C      1  0.5470850000000  0.5167250000000  0.5527810000000 1.0
C      1  0.4528900000000  0.4826490000000  0.5527810000000 1.0
C      1  0.4528900000000  0.5167250000000  0.4478200000000 1.0
C      1  0.5170260000000  0.5521670000000  0.5473980000000 1.0
C      1  0.4829500000000  0.4472070000000  0.5473980000000 1.0
C      1  0.4829500000000  0.5521670000000  0.4532030000000 1.0
C      1  0.5524680000000  0.5467840000000  0.5173380000000 1.0
C      1  0.4475070000000  0.4525900000000  0.5173380000000 1.0
C      1  0.4475070000000  0.5467840000000  0.4832620000000 1.0
C      1  0.4793650000000  0.5072710000000  0.5743740000000 1.0
C      1  0.5075710000000  0.5737600000000  0.4796780000000 1.0
C      1  0.5740610000000  0.4790650000000  0.5078840000000 1.0
C      1  0.4793650000000  0.4921040000000  0.4262270000000 1.0
C      1  0.5206100000000  0.5072710000000  0.4262270000000 1.0
C      1  0.5206100000000  0.4921040000000  0.5743740000000 1.0
C      1  0.5075710000000  0.4256140000000  0.5209230000000 1.0
C      1  0.4924040000000  0.5737610000000  0.5209230000000 1.0
C      1  0.4924040000000  0.4256140000000  0.4796780000000 1.0
C      1  0.5740610000000  0.5203100000000  0.4927170000000 1.0
C      1  0.4259140000000  0.4790650000000  0.4927170000000 1.0
C      1  0.4259140000000  0.5203100000000  0.5078840000000 1.0
C      1  0.5206100000000  0.5072710000000  0.5743740000000 1.0
C      1  0.4924040000000  0.5737600000000  0.4796780000000 1.0
C      1  0.4259140000000  0.4790650000000  0.5078840000000 1.0
C      1  0.5206100000000  0.4921040000000  0.4262270000000 1.0
C      1  0.4793650000000  0.5072710000000  0.4262270000000 1.0
C      1  0.4793650000000  0.4921040000000  0.5743740000000 1.0
C      1  0.4924040000000  0.4256140000000  0.5209230000000 1.0
C      1  0.5075710000000  0.5737610000000  0.5209230000000 1.0
C      1  0.5075710000000  0.4256140000000  0.4796780000000 1.0
C      1  0.4259140000000  0.5203100000000  0.4927170000000 1.0
C      1  0.5740610000000  0.4790650000000  0.4927170000000 1.0
C      1  0.5740610000000  0.5203100000000  0.5078840000000 1.0
C      1  0.5360100000000  0.5281310000000  0.5069400000000 1.0
C      1  0.5284310000000  0.5063270000000  0.5363230000000 1.0
C      1  0.5066270000000  0.5357100000000  0.5287440000000 1.0
C      1  0.5360100000000  0.4712430000000  0.4936610000000 1.0
C      1  0.4639650000000  0.5281310000000  0.4936610000000 1.0
C      1  0.4639650000000  0.4712430000000  0.5069400000000 1.0
C      1  0.5284310000000  0.4930480000000  0.4642780000000 1.0
C      1  0.4715440000000  0.5063270000000  0.4642780000000 1.0
C      1  0.4715440000000  0.4930480000000  0.5363230000000 1.0
C      1  0.5066270000000  0.4636640000000  0.4718570000000 1.0
C      1  0.4933480000000  0.5357100000000  0.4718570000000 1.0
C      1  0.4933480000000  0.4636640000000  0.5287440000000 1.0
C      1  0.4639650000000  0.5281310000000  0.5069400000000 1.0
C      1  0.4715440000000  0.5063270000000  0.5363230000000 1.0
C      1  0.4933480000000  0.5357100000000  0.5287440000000 1.0
C      1  0.4639650000000  0.4712430000000  0.4936610000000 1.0
C      1  0.5360100000000  0.5281310000000  0.4936610000000 1.0
C      1  0.5360100000000  0.4712430000000  0.5069400000000 1.0
C      1  0.4715440000000  0.4930480000000  0.4642780000000 1.0
C      1  0.5284310000000  0.5063270000000  0.4642780000000 1.0
C      1  0.5284310000000  0.4930480000000  0.5363230000000 1.0
C      1  0.4933480000000  0.4636640000000  0.4718570000000 1.0
C      1  0.5066270000000  0.5357100000000  0.4718570000000 1.0
C      1  0.5066270000000  0.4636640000000  0.5287440000000 1.0
C      1  0.5769110000000  0.5065040000000  0.5079410000000 1.0
C      1  0.5068040000000  0.5073280000000  0.5772230000000 1.0
C      1  0.5076290000000  0.5766100000000  0.5071170000000 1.0
C      1  0.5769100000000  0.4928710000000  0.4926590000000 1.0
C      1  0.4230650000000  0.5065040000000  0.4926590000000 1.0
C      1  0.4230650000000  0.4928710000000  0.5079410000000 1.0
C      1  0.5068040000000  0.4920460000000  0.4233780000000 1.0
C      1  0.4931710000000  0.5073280000000  0.4233780000000 1.0
C      1  0.4931710000000  0.4920460000000  0.5772230000000 1.0
C      1  0.5076290000000  0.4227650000000  0.4934840000000 1.0
C      1  0.4923470000000  0.5766100000000  0.4934840000000 1.0
C      1  0.4923470000000  0.4227640000000  0.5071170000000 1.0
C      1  0.4230650000000  0.5065040000000  0.5079410000000 1.0
C      1  0.4931710000000  0.5073280000000  0.5772230000000 1.0
C      1  0.4923470000000  0.5766100000000  0.5071170000000 1.0
C      1  0.4230650000000  0.4928710000000  0.4926590000000 1.0
C      1  0.5769110000000  0.5065040000000  0.4926590000000 1.0
C      1  0.5769100000000  0.4928710000000  0.5079410000000 1.0
C      1  0.4931710000000  0.4920460000000  0.4233780000000 1.0
C      1  0.5068040000000  0.5073280000000  0.4233780000000 1.0
C      1  0.5068040000000  0.4920460000000  0.5772230000000 1.0
C      1  0.4923470000000  0.4227650000000  0.4934840000000 1.0
C      1  0.5076290000000  0.5766100000000  0.4934840000000 1.0
C      1  0.5076290000000  0.4227640000000  0.5071170000000 1.0
C      1  0.4667650000000  0.5146300000000  0.5458660000000 1.0
C      1  0.5149300000000  0.5452530000000  0.4670780000000 1.0
C      1  0.5455530000000  0.4664640000000  0.5152430000000 1.0
C      1  0.4667650000000  0.4847440000000  0.4547350000000 1.0
C      1  0.5332100000000  0.5146300000000  0.4547350000000 1.0
C      1  0.5332100000000  0.4847440000000  0.5458660000000 1.0
C      1  0.5149300000000  0.4541210000000  0.5335230000000 1.0
C      1  0.4850450000000  0.5452530000000  0.5335230000000 1.0
C      1  0.4850450000000  0.4541210000000  0.4670780000000 1.0
C      1  0.5455530000000  0.5329100000000  0.4853580000000 1.0
C      1  0.4544220000000  0.4664640000000  0.4853580000000 1.0
C      1  0.4544220000000  0.5329100000000  0.5152430000000 1.0
C      1  0.5332100000000  0.5146300000000  0.5458660000000 1.0
C      1  0.4850450000000  0.5452530000000  0.4670780000000 1.0
C      1  0.4544220000000  0.4664640000000  0.5152430000000 1.0
C      1  0.5332100000000  0.4847440000000  0.4547350000000 1.0
C      1  0.4667650000000  0.5146300000000  0.4547350000000 1.0
C      1  0.4667650000000  0.4847440000000  0.5458660000000 1.0
C      1  0.4850450000000  0.4541210000000  0.5335230000000 1.0
C      1  0.5149300000000  0.5452530000000  0.5335230000000 1.0
C      1  0.5149300000000  0.4541210000000  0.4670780000000 1.0
C      1  0.4544220000000  0.5329100000000  0.4853580000000 1.0
C      1  0.5455530000000  0.4664640000000  0.4853580000000 1.0
C      1  0.5455540000000  0.5329100000000  0.5152430000000 1.0
C      1  0.4883060000000  0.4340220000000  0.5435340000000 1.0
C      1  0.4343230000000  0.5429200000000  0.4886190000000 1.0
C      1  0.5432210000000  0.4880060000000  0.4346360000000 1.0
C      1  0.4883060000000  0.5653520000000  0.4570670000000 1.0
C      1  0.5116690000000  0.4340220000000  0.4570670000000 1.0
C      1  0.5116690000000  0.5653520000000  0.5435340000000 1.0
C      1  0.4343230000000  0.4564540000000  0.5119820000000 1.0
C      1  0.5656530000000  0.5429200000000  0.5119820000000 1.0
C      1  0.5656530000000  0.4564540000000  0.4886190000000 1.0
C      1  0.5432210000000  0.5113690000000  0.5659650000000 1.0
C      1  0.4567540000000  0.4880060000000  0.5659650000000 1.0
C      1  0.4567540000000  0.5113690000000  0.4346360000000 1.0
C      1  0.5116690000000  0.4340220000000  0.5435340000000 1.0
C      1  0.5656530000000  0.5429200000000  0.4886190000000 1.0
C      1  0.4567540000000  0.4880060000000  0.4346360000000 1.0
C      1  0.5116690000000  0.5653520000000  0.4570670000000 1.0
C      1  0.4883060000000  0.4340220000000  0.4570670000000 1.0
C      1  0.4883060000000  0.5653520000000  0.5435340000000 1.0
C      1  0.5656530000000  0.4564540000000  0.5119820000000 1.0
C      1  0.4343230000000  0.5429200000000  0.5119820000000 1.0
C      1  0.4343230000000  0.4564540000000  0.4886190000000 1.0
C      1  0.4567540000000  0.5113690000000  0.5659650000000 1.0
C      1  0.5432210000000  0.4880060000000  0.5659650000000 1.0
C      1  0.5432210000000  0.5113690000000  0.4346360000000 1.0
C      1  0.5525330000000  0.5348780000000  0.4634860000000 1.0
C      1  0.5351780000000  0.4628730000000  0.5528460000000 1.0
C      1  0.4631730000000  0.5522330000000  0.5354910000000 1.0
C      1  0.5525330000000  0.4644970000000  0.5371150000000 1.0
C      1  0.4474420000000  0.5348780000000  0.5371150000000 1.0
C      1  0.4474420000000  0.4644970000000  0.4634860000000 1.0
C      1  0.5351780000000  0.5365020000000  0.4477550000000 1.0
C      1  0.4647970000000  0.4628730000000  0.4477550000000 1.0
C      1  0.4647970000000  0.5365020000000  0.5528460000000 1.0
C      1  0.4631730000000  0.4471420000000  0.4651100000000 1.0
C      1  0.5368020000000  0.5522330000000  0.4651100000000 1.0
C      1  0.5368020000000  0.4471420000000  0.5354910000000 1.0
C      1  0.4474420000000  0.5348780000000  0.4634860000000 1.0
C      1  0.4647970000000  0.4628730000000  0.5528460000000 1.0
C      1  0.5368020000000  0.5522330000000  0.5354910000000 1.0
C      1  0.4474420000000  0.4644970000000  0.5371150000000 1.0
C      1  0.5525330000000  0.5348780000000  0.5371150000000 1.0
C      1  0.5525330000000  0.4644970000000  0.4634860000000 1.0
C      1  0.4647970000000  0.5365020000000  0.4477550000000 1.0
C      1  0.5351780000000  0.4628730000000  0.4477550000000 1.0
C      1  0.5351780000000  0.5365020000000  0.5528460000000 1.0
C      1  0.5368020000000  0.4471420000000  0.4651100000000 1.0
C      1  0.4631730000000  0.5522330000000  0.4651100000000 1.0
C      1  0.4631730000000  0.4471420000000  0.5354910000000 1.0
C      1  0.4506180000000  0.4687500000000  0.5507100000000 1.0
C      1  0.4690510000000  0.5500960000000  0.4509310000000 1.0
C      1  0.5503970000000  0.4503180000000  0.4693630000000 1.0
C      1  0.4506180000000  0.5306240000000  0.4498910000000 1.0
C      1  0.5493570000000  0.4687500000000  0.4498910000000 1.0
C      1  0.5493570000000  0.5306240000000  0.5507100000000 1.0
C      1  0.4690510000000  0.4492780000000  0.5496700000000 1.0
C      1  0.5309250000000  0.5500960000000  0.5496700000000 1.0
C      1  0.5309250000000  0.4492780000000  0.4509310000000 1.0
C      1  0.5503970000000  0.5490570000000  0.5312370000000 1.0
C      1  0.4495780000000  0.4503180000000  0.5312370000000 1.0
C      1  0.4495780000000  0.5490570000000  0.4693630000000 1.0
C      1  0.5493570000000  0.4687500000000  0.5507100000000 1.0
C      1  0.5309250000000  0.5500960000000  0.4509310000000 1.0
C      1  0.4495780000000  0.4503180000000  0.4693630000000 1.0
C      1  0.5493570000000  0.5306240000000  0.4498910000000 1.0
C      1  0.4506180000000  0.4687500000000  0.4498910000000 1.0
C      1  0.4506180000000  0.5306240000000  0.5507100000000 1.0
C      1  0.5309250000000  0.4492780000000  0.5496700000000 1.0
C      1  0.4690510000000  0.5500960000000  0.5496700000000 1.0
C      1  0.4690510000000  0.4492780000000  0.4509310000000 1.0
C      1  0.4495780000000  0.5490570000000  0.5312370000000 1.0
C      1  0.5503970000000  0.4503180000000  0.5312370000000 1.0
C      1  0.5503970000000  0.5490570000000  0.4693630000000 1.0
C      1  0.5271270000000  0.5245920000000  0.4440280000000 1.0
C      1  0.5248920000000  0.4434150000000  0.5274400000000 1.0
C      1  0.4437160000000  0.5268260000000  0.5252050000000 1.0
C      1  0.5271270000000  0.4747820000000  0.5565720000000 1.0
C      1  0.4728480000000  0.5245920000000  0.5565720000000 1.0
C      1  0.4728480000000  0.4747820000000  0.4440280000000 1.0
C      1  0.5248920000000  0.5559590000000  0.4731610000000 1.0
C      1  0.4750830000000  0.4434150000000  0.4731610000000 1.0
C      1  0.4750830000000  0.5559590000000  0.5274400000000 1.0
C      1  0.4437160000000  0.4725480000000  0.4753960000000 1.0
C      1  0.5562600000000  0.5268260000000  0.4753960000000 1.0
C      1  0.5562600000000  0.4725480000000  0.5252050000000 1.0
C      1  0.4728480000000  0.5245920000000  0.4440280000000 1.0
C      1  0.4750830000000  0.4434150000000  0.5274400000000 1.0
C      1  0.5562600000000  0.5268260000000  0.5252050000000 1.0
C      1  0.4728480000000  0.4747820000000  0.5565720000000 1.0
C      1  0.5271270000000  0.5245920000000  0.5565720000000 1.0
C      1  0.5271270000000  0.4747820000000  0.4440280000000 1.0
C      1  0.4750830000000  0.5559590000000  0.4731610000000 1.0
C      1  0.5248920000000  0.4434150000000  0.4731610000000 1.0
C      1  0.5248920000000  0.5559590000000  0.5274400000000 1.0
C      1  0.5562600000000  0.4725480000000  0.4753960000000 1.0
C      1  0.4437160000000  0.5268260000000  0.4753960000000 1.0
C      1  0.4437160000000  0.4725480000000  0.5252050000000 1.0
C      1  0.4319320000000  0.5292300000000  0.5169450000000 1.0
C      1  0.5295300000000  0.5163310000000  0.4322450000000 1.0
C      1  0.5166320000000  0.4316320000000  0.5298430000000 1.0
C      1  0.4319320000000  0.4701450000000  0.4836560000000 1.0
C      1  0.5680430000000  0.5292300000000  0.4836560000000 1.0
C      1  0.5680430000000  0.4701450000000  0.5169450000000 1.0
C      1  0.5295300000000  0.4830430000000  0.5683560000000 1.0
C      1  0.4704450000000  0.5163310000000  0.5683560000000 1.0
C      1  0.4704450000000  0.4830430000000  0.4322450000000 1.0
C      1  0.5166320000000  0.5677430000000  0.4707580000000 1.0
C      1  0.4833430000000  0.4316320000000  0.4707580000000 1.0
C      1  0.4833430000000  0.5677430000000  0.5298430000000 1.0
C      1  0.5680430000000  0.5292300000000  0.5169450000000 1.0
C      1  0.4704450000000  0.5163310000000  0.4322450000000 1.0
C      1  0.4833430000000  0.4316320000000  0.5298430000000 1.0
C      1  0.5680430000000  0.4701450000000  0.4836560000000 1.0
C      1  0.4319320000000  0.5292300000000  0.4836560000000 1.0
C      1  0.4319320000000  0.4701450000000  0.5169450000000 1.0
C      1  0.4704450000000  0.4830430000000  0.5683560000000 1.0
C      1  0.5295300000000  0.5163310000000  0.5683560000000 1.0
C      1  0.5295300000000  0.4830430000000  0.4322450000000 1.0
C      1  0.4833430000000  0.5677430000000  0.4707580000000 1.0
C      1  0.5166320000000  0.4316320000000  0.4707580000000 1.0
C      1  0.5166320000000  0.5677430000000  0.5298430000000 1.0
C      1  0.4525390000000  0.4996870000000  0.5710670000000 1.0
C      1  0.4999880000000  0.5704540000000  0.4528520000000 1.0
C      1  0.5707540000000  0.4522380000000  0.5003000000000 1.0
C      1  0.5474360000000  0.4996870000000  0.4295340000000 1.0
C      1  0.5474360000000  0.4996870000000  0.5710670000000 1.0
C      1  0.4999880000000  0.4289210000000  0.5477490000000 1.0
C      1  0.4999880000000  0.5704540000000  0.5477490000000 1.0
C      1  0.4999880000000  0.4289210000000  0.4528520000000 1.0
C      1  0.5707540000000  0.5471360000000  0.5003000000000 1.0
C      1  0.4292210000000  0.4522380000000  0.5003000000000 1.0
C      1  0.4292210000000  0.5471360000000  0.5003000000000 1.0
C      1  0.4525390000000  0.4996870000000  0.4295340000000 1.0
C      1  0.4628970000000  0.4625960000000  0.5373910000000 1.0
C      1  0.5370780000000  0.4625960000000  0.4632100000000 1.0
C      1  0.5370780000000  0.5367780000000  0.4632100000000 1.0
C      1  0.4628970000000  0.5367780000000  0.5373910000000 1.0
C      1  0.4628970000000  0.5367780000000  0.4632100000000 1.0
C      1  0.5370780000000  0.5367780000000  0.5373910000000 1.0
C      1  0.5370780000000  0.4625960000000  0.5373910000000 1.0
C      1  0.4628970000000  0.4625960000000  0.4632100000000 1.0
END
