TITL C-1887012-575-55 6.83785620986271e-07 1000000 -2657.8401151945 0 0 380 (Th) n - 1
REM
REM in /nfs/bkarasulu/CARBON/AIRSS/Generating-Clusters/GAP-ML-2020/Higher-Symm/Selected-Sizes/TryA-Only_Ih-Symm/Larger-Clusters
REM
REM
REM
REM
REM
REM ./C.cell (2cf5181f0f1d4d5b12b972d32ad12063)
REM
REM compiler GCC version 9.2.1 20190827 (Red Hat 9.2.1-1)
REM options -cpp -mtune=generic -march=x86-64 -g -O0 -fpre-include=/usr/include/finclude/math-vector-fortran.h
REM seed 1635278968 -206246073 40638693 932610171 758861245 1133287534 299514723 1857319093 889173933 -511413795 -140620699 1777859818 -519076853 -31686137 882726071 -1948425224 1345581157 -1667471991 996889227 -270852434 1762371359 -771340679 -1700724796 -179708104 -1300444042 2089182255 1946075113 2131856745 -1029572401 -1606253469 1360137885 876882237 1110536225
REM
CELL 1.54180  100.00000  100.00000  100.00000   90.00000   90.00000   90.00000
LATT -1
SFAC C  
C      1  0.5739040000000  0.5383290000000  0.4868090000000 1.0
C      1  0.4870360000000  0.5740850000000  0.5379220000000 1.0
C      1  0.5381490000000  0.4872170000000  0.5736770000000 1.0
C      1  0.5739040000000  0.4621240000000  0.5128290000000 1.0
C      1  0.4261880000000  0.4621240000000  0.4868090000000 1.0
C      1  0.4261880000000  0.5383290000000  0.5128290000000 1.0
C      1  0.4870360000000  0.4263690000000  0.4617170000000 1.0
C      1  0.5130560000000  0.4263690000000  0.5379220000000 1.0
C      1  0.5130560000000  0.5740850000000  0.4617170000000 1.0
C      1  0.5381490000000  0.5132370000000  0.4259610000000 1.0
C      1  0.4619440000000  0.5132370000000  0.5736770000000 1.0
C      1  0.4619440000000  0.4872170000000  0.4259610000000 1.0
C      1  0.4261880000000  0.5383290000000  0.4868090000000 1.0
C      1  0.5130560000000  0.5740850000000  0.5379220000000 1.0
C      1  0.4619440000000  0.4872170000000  0.5736770000000 1.0
C      1  0.4261880000000  0.4621240000000  0.5128290000000 1.0
C      1  0.5739040000000  0.4621240000000  0.4868090000000 1.0
C      1  0.5739040000000  0.5383290000000  0.5128290000000 1.0
C      1  0.5130560000000  0.4263690000000  0.4617170000000 1.0
C      1  0.4870360000000  0.4263690000000  0.5379220000000 1.0
C      1  0.4870360000000  0.5740850000000  0.4617170000000 1.0
C      1  0.4619440000000  0.5132370000000  0.4259610000000 1.0
C      1  0.5381490000000  0.5132370000000  0.5736770000000 1.0
C      1  0.5381490000000  0.4872170000000  0.4259610000000 1.0
C      1  0.5631020000000  0.4549410000000  0.5167870000000 1.0
C      1  0.5170140000000  0.5632830000000  0.4545330000000 1.0
C      1  0.4547600000000  0.5171950000000  0.5628750000000 1.0
C      1  0.5631020000000  0.5455130000000  0.4828510000000 1.0
C      1  0.4369900000000  0.5455130000000  0.5167870000000 1.0
C      1  0.4369900000000  0.4549410000000  0.4828510000000 1.0
C      1  0.5170140000000  0.4371710000000  0.5451050000000 1.0
C      1  0.4830780000000  0.4371710000000  0.4545330000000 1.0
C      1  0.4830780000000  0.5632830000000  0.5451050000000 1.0
C      1  0.4547600000000  0.4832590000000  0.4367630000000 1.0
C      1  0.5453320000000  0.4832590000000  0.5628750000000 1.0
C      1  0.5453320000000  0.5171950000000  0.4367630000000 1.0
C      1  0.4369900000000  0.4549410000000  0.5167870000000 1.0
C      1  0.4830780000000  0.5632830000000  0.4545330000000 1.0
C      1  0.5453320000000  0.5171950000000  0.5628750000000 1.0
C      1  0.4369900000000  0.5455130000000  0.4828510000000 1.0
C      1  0.5631020000000  0.5455130000000  0.5167870000000 1.0
C      1  0.5631020000000  0.4549410000000  0.4828510000000 1.0
C      1  0.4830780000000  0.4371710000000  0.5451050000000 1.0
C      1  0.5170140000000  0.4371710000000  0.4545330000000 1.0
C      1  0.5170140000000  0.5632830000000  0.5451050000000 1.0
C      1  0.5453320000000  0.4832590000000  0.4367630000000 1.0
C      1  0.4547600000000  0.4832590000000  0.5628750000000 1.0
C      1  0.4547600000000  0.5171950000000  0.4367630000000 1.0
C      1  0.5138130000000  0.4832660000000  0.4226720000000 1.0
C      1  0.4228990000000  0.5139940000000  0.4828580000000 1.0
C      1  0.4830850000000  0.4230800000000  0.5135860000000 1.0
C      1  0.5138130000000  0.5171880000000  0.5769660000000 1.0
C      1  0.4862790000000  0.5171880000000  0.4226720000000 1.0
C      1  0.4862790000000  0.4832660000000  0.5769660000000 1.0
C      1  0.4228990000000  0.4864600000000  0.5167800000000 1.0
C      1  0.5771930000000  0.4864600000000  0.4828580000000 1.0
C      1  0.5771930000000  0.5139940000000  0.5167800000000 1.0
C      1  0.4830850000000  0.5773740000000  0.4860530000000 1.0
C      1  0.5170070000000  0.5773740000000  0.5135860000000 1.0
C      1  0.5170070000000  0.4230800000000  0.4860530000000 1.0
C      1  0.4862790000000  0.4832660000000  0.4226720000000 1.0
C      1  0.5771930000000  0.5139940000000  0.4828580000000 1.0
C      1  0.5170070000000  0.4230800000000  0.5135860000000 1.0
C      1  0.4862790000000  0.5171880000000  0.5769660000000 1.0
C      1  0.5138130000000  0.5171880000000  0.4226720000000 1.0
C      1  0.5138130000000  0.4832660000000  0.5769660000000 1.0
C      1  0.5771930000000  0.4864600000000  0.5167800000000 1.0
C      1  0.4228990000000  0.4864600000000  0.4828580000000 1.0
C      1  0.4228990000000  0.5139940000000  0.5167800000000 1.0
C      1  0.5170070000000  0.5773740000000  0.4860530000000 1.0
C      1  0.4830850000000  0.5773740000000  0.5135860000000 1.0
C      1  0.4830850000000  0.4230800000000  0.4860530000000 1.0
C      1  0.4782720000000  0.4217200000000  0.5269480000000 1.0
C      1  0.5271740000000  0.4784520000000  0.4213130000000 1.0
C      1  0.4215400000000  0.5273550000000  0.4780450000000 1.0
C      1  0.4782720000000  0.5787330000000  0.4726910000000 1.0
C      1  0.5218210000000  0.5787330000000  0.5269480000000 1.0
C      1  0.5218210000000  0.4217200000000  0.4726910000000 1.0
C      1  0.5271740000000  0.5220010000000  0.5783260000000 1.0
C      1  0.4729180000000  0.5220010000000  0.4213130000000 1.0
C      1  0.4729180000000  0.4784520000000  0.5783260000000 1.0
C      1  0.4215390000000  0.4730980000000  0.5215940000000 1.0
C      1  0.5785530000000  0.4730980000000  0.4780450000000 1.0
C      1  0.5785530000000  0.5273550000000  0.5215940000000 1.0
C      1  0.5218210000000  0.4217200000000  0.5269480000000 1.0
C      1  0.4729180000000  0.4784520000000  0.4213130000000 1.0
C      1  0.5785530000000  0.5273550000000  0.4780450000000 1.0
C      1  0.5218210000000  0.5787330000000  0.4726910000000 1.0
C      1  0.4782720000000  0.5787330000000  0.5269480000000 1.0
C      1  0.4782720000000  0.4217200000000  0.4726910000000 1.0
C      1  0.4729180000000  0.5220010000000  0.5783260000000 1.0
C      1  0.5271740000000  0.5220010000000  0.4213130000000 1.0
C      1  0.5271740000000  0.4784520000000  0.5783260000000 1.0
C      1  0.5785530000000  0.4730980000000  0.5215940000000 1.0
C      1  0.4215400000000  0.4730980000000  0.4780450000000 1.0
C      1  0.4215390000000  0.5273550000000  0.5215940000000 1.0
C      1  0.4237540000000  0.5298740000000  0.4645860000000 1.0
C      1  0.4648130000000  0.4239350000000  0.5294660000000 1.0
C      1  0.5296930000000  0.4649940000000  0.4235270000000 1.0
C      1  0.4237540000000  0.4705800000000  0.5350520000000 1.0
C      1  0.5763380000000  0.4705800000000  0.4645860000000 1.0
C      1  0.5763380000000  0.5298740000000  0.5350520000000 1.0
C      1  0.4648130000000  0.5765190000000  0.4701720000000 1.0
C      1  0.5352790000000  0.5765190000000  0.5294660000000 1.0
C      1  0.5352790000000  0.4239350000000  0.4701720000000 1.0
C      1  0.5296930000000  0.5354600000000  0.5761110000000 1.0
C      1  0.4703990000000  0.5354600000000  0.4235270000000 1.0
C      1  0.4703990000000  0.4649940000000  0.5761110000000 1.0
C      1  0.5763380000000  0.5298740000000  0.4645860000000 1.0
C      1  0.5352790000000  0.4239350000000  0.5294660000000 1.0
C      1  0.4703990000000  0.4649940000000  0.4235270000000 1.0
C      1  0.5763380000000  0.4705800000000  0.5350520000000 1.0
C      1  0.4237540000000  0.4705800000000  0.4645860000000 1.0
C      1  0.4237540000000  0.5298740000000  0.5350520000000 1.0
C      1  0.5352790000000  0.5765190000000  0.4701720000000 1.0
C      1  0.4648130000000  0.5765190000000  0.5294660000000 1.0
C      1  0.4648130000000  0.4239350000000  0.4701720000000 1.0
C      1  0.4703990000000  0.5354600000000  0.5761110000000 1.0
C      1  0.5296930000000  0.5354600000000  0.4235270000000 1.0
C      1  0.5296930000000  0.4649940000000  0.5761110000000 1.0
C      1  0.4549560000000  0.4478260000000  0.5318600000000 1.0
C      1  0.5320870000000  0.4551370000000  0.4474190000000 1.0
C      1  0.4476460000000  0.5322670000000  0.4547290000000 1.0
C      1  0.4549560000000  0.5526270000000  0.4677790000000 1.0
C      1  0.5451360000000  0.5526270000000  0.5318600000000 1.0
C      1  0.5451360000000  0.4478260000000  0.4677790000000 1.0
C      1  0.5320870000000  0.5453170000000  0.5522200000000 1.0
C      1  0.4680060000000  0.5453170000000  0.4474190000000 1.0
C      1  0.4680050000000  0.4551370000000  0.5522200000000 1.0
C      1  0.4476460000000  0.4681860000000  0.5449090000000 1.0
C      1  0.5524470000000  0.4681860000000  0.4547290000000 1.0
C      1  0.5524470000000  0.5322670000000  0.5449090000000 1.0
C      1  0.5451360000000  0.4478260000000  0.5318600000000 1.0
C      1  0.4680060000000  0.4551370000000  0.4474190000000 1.0
C      1  0.5524470000000  0.5322670000000  0.4547290000000 1.0
C      1  0.5451360000000  0.5526270000000  0.4677790000000 1.0
C      1  0.4549560000000  0.5526270000000  0.5318600000000 1.0
C      1  0.4549560000000  0.4478260000000  0.4677790000000 1.0
C      1  0.4680050000000  0.5453170000000  0.5522200000000 1.0
C      1  0.5320870000000  0.5453170000000  0.4474190000000 1.0
C      1  0.5320870000000  0.4551370000000  0.5522200000000 1.0
C      1  0.5524470000000  0.4681860000000  0.5449090000000 1.0
C      1  0.4476460000000  0.4681860000000  0.4547290000000 1.0
C      1  0.4476460000000  0.5322670000000  0.5449090000000 1.0
C      1  0.4877580000000  0.4726430000000  0.4469990000000 1.0
C      1  0.4472260000000  0.4879390000000  0.4722350000000 1.0
C      1  0.4724620000000  0.4474060000000  0.4875320000000 1.0
C      1  0.4877580000000  0.5278110000000  0.5526400000000 1.0
C      1  0.5123340000000  0.5278110000000  0.4469990000000 1.0
C      1  0.5123340000000  0.4726430000000  0.5526400000000 1.0
C      1  0.4472260000000  0.5125150000000  0.5274030000000 1.0
C      1  0.5528670000000  0.5125150000000  0.4722350000000 1.0
C      1  0.5528670000000  0.4879390000000  0.5274030000000 1.0
C      1  0.4724620000000  0.5530470000000  0.5121070000000 1.0
C      1  0.5276300000000  0.5530470000000  0.4875320000000 1.0
C      1  0.5276300000000  0.4474060000000  0.5121070000000 1.0
C      1  0.5123340000000  0.4726430000000  0.4469990000000 1.0
C      1  0.5528670000000  0.4879390000000  0.4722350000000 1.0
C      1  0.5276300000000  0.4474060000000  0.4875320000000 1.0
C      1  0.5123340000000  0.5278110000000  0.5526400000000 1.0
C      1  0.4877580000000  0.5278110000000  0.4469990000000 1.0
C      1  0.4877580000000  0.4726430000000  0.5526400000000 1.0
C      1  0.5528670000000  0.5125150000000  0.5274030000000 1.0
C      1  0.4472260000000  0.5125150000000  0.4722350000000 1.0
C      1  0.4472260000000  0.4879390000000  0.5274030000000 1.0
C      1  0.5276300000000  0.5530470000000  0.5121070000000 1.0
C      1  0.4724620000000  0.5530470000000  0.4875320000000 1.0
C      1  0.4724620000000  0.4474060000000  0.5121070000000 1.0
C      1  0.4489980000000  0.5074350000000  0.5405260000000 1.0
C      1  0.5407530000000  0.4491790000000  0.5070270000000 1.0
C      1  0.5072540000000  0.5409330000000  0.4487710000000 1.0
C      1  0.4489980000000  0.4930190000000  0.4591130000000 1.0
C      1  0.5510940000000  0.4930190000000  0.5405260000000 1.0
C      1  0.5510940000000  0.5074350000000  0.4591130000000 1.0
C      1  0.5407530000000  0.5512750000000  0.4926110000000 1.0
C      1  0.4593400000000  0.5512750000000  0.5070270000000 1.0
C      1  0.4593400000000  0.4491790000000  0.4926110000000 1.0
C      1  0.5072540000000  0.4595200000000  0.5508670000000 1.0
C      1  0.4928380000000  0.4595200000000  0.4487710000000 1.0
C      1  0.4928380000000  0.5409330000000  0.5508670000000 1.0
C      1  0.5510940000000  0.5074350000000  0.5405260000000 1.0
C      1  0.4593400000000  0.4491790000000  0.5070270000000 1.0
C      1  0.4928380000000  0.5409330000000  0.4487710000000 1.0
C      1  0.5510940000000  0.4930190000000  0.4591130000000 1.0
C      1  0.4489980000000  0.4930190000000  0.5405260000000 1.0
C      1  0.4489980000000  0.5074350000000  0.4591130000000 1.0
C      1  0.4593400000000  0.5512750000000  0.4926110000000 1.0
C      1  0.5407530000000  0.5512750000000  0.5070270000000 1.0
C      1  0.5407530000000  0.4491790000000  0.4926110000000 1.0
C      1  0.4928380000000  0.4595200000000  0.5508670000000 1.0
C      1  0.5072540000000  0.4595200000000  0.4487710000000 1.0
C      1  0.5072540000000  0.5409330000000  0.5508670000000 1.0
C      1  0.5403860000000  0.5654790000000  0.4670460000000 1.0
C      1  0.4672720000000  0.5405670000000  0.5650710000000 1.0
C      1  0.5652980000000  0.4674530000000  0.5401590000000 1.0
C      1  0.5403860000000  0.4349750000000  0.5325930000000 1.0
C      1  0.4597060000000  0.4349750000000  0.4670460000000 1.0
C      1  0.4597060000000  0.5654790000000  0.5325930000000 1.0
C      1  0.4672720000000  0.4598870000000  0.4345670000000 1.0
C      1  0.5328200000000  0.4598870000000  0.5650710000000 1.0
C      1  0.5328200000000  0.5405670000000  0.4345670000000 1.0
C      1  0.5652980000000  0.5330010000000  0.4594790000000 1.0
C      1  0.4347940000000  0.5330010000000  0.5401590000000 1.0
C      1  0.4347940000000  0.4674530000000  0.4594790000000 1.0
C      1  0.4597060000000  0.5654790000000  0.4670460000000 1.0
C      1  0.5328200000000  0.5405670000000  0.5650710000000 1.0
C      1  0.4347940000000  0.4674530000000  0.5401590000000 1.0
C      1  0.4597060000000  0.4349750000000  0.5325930000000 1.0
C      1  0.5403860000000  0.4349750000000  0.4670460000000 1.0
C      1  0.5403860000000  0.5654790000000  0.5325930000000 1.0
C      1  0.5328200000000  0.4598870000000  0.4345670000000 1.0
C      1  0.4672720000000  0.4598870000000  0.5650710000000 1.0
C      1  0.4672720000000  0.5405670000000  0.4345670000000 1.0
C      1  0.4347940000000  0.5330010000000  0.4594790000000 1.0
C      1  0.5652980000000  0.5330010000000  0.5401590000000 1.0
C      1  0.5652980000000  0.4674530000000  0.4594790000000 1.0
C      1  0.5491620000000  0.4823320000000  0.4492430000000 1.0
C      1  0.4494700000000  0.5493430000000  0.4819240000000 1.0
C      1  0.4821510000000  0.4496510000000  0.5489350000000 1.0
C      1  0.5491620000000  0.5181220000000  0.5503950000000 1.0
C      1  0.4509300000000  0.5181220000000  0.4492430000000 1.0
C      1  0.4509300000000  0.4823320000000  0.5503950000000 1.0
C      1  0.4494700000000  0.4511110000000  0.5177140000000 1.0
C      1  0.5506220000000  0.4511110000000  0.4819240000000 1.0
C      1  0.5506220000000  0.5493430000000  0.5177140000000 1.0
C      1  0.4821510000000  0.5508030000000  0.4507030000000 1.0
C      1  0.5179410000000  0.5508030000000  0.5489350000000 1.0
C      1  0.5179410000000  0.4496510000000  0.4507030000000 1.0
C      1  0.4509300000000  0.4823320000000  0.4492430000000 1.0
C      1  0.5506220000000  0.5493430000000  0.4819240000000 1.0
C      1  0.5179410000000  0.4496510000000  0.5489350000000 1.0
C      1  0.4509300000000  0.5181220000000  0.5503950000000 1.0
C      1  0.5491620000000  0.5181220000000  0.4492430000000 1.0
C      1  0.5491620000000  0.4823320000000  0.5503950000000 1.0
C      1  0.5506220000000  0.4511110000000  0.5177140000000 1.0
C      1  0.4494700000000  0.4511110000000  0.4819240000000 1.0
C      1  0.4494700000000  0.5493430000000  0.5177140000000 1.0
C      1  0.5179410000000  0.5508030000000  0.4507030000000 1.0
C      1  0.4821510000000  0.5508030000000  0.5489350000000 1.0
C      1  0.4821510000000  0.4496510000000  0.4507030000000 1.0
C      1  0.5308510000000  0.5218350000000  0.4795600000000 1.0
C      1  0.4797870000000  0.5310320000000  0.5214280000000 1.0
C      1  0.5216550000000  0.4799680000000  0.5306240000000 1.0
C      1  0.5308510000000  0.4786180000000  0.5200780000000 1.0
C      1  0.4692410000000  0.4786180000000  0.4795600000000 1.0
C      1  0.4692410000000  0.5218350000000  0.5200780000000 1.0
C      1  0.4797870000000  0.4694220000000  0.4782110000000 1.0
C      1  0.5203050000000  0.4694220000000  0.5214280000000 1.0
C      1  0.5203050000000  0.5310320000000  0.4782110000000 1.0
C      1  0.5216540000000  0.5204860000000  0.4690140000000 1.0
C      1  0.4784380000000  0.5204860000000  0.5306240000000 1.0
C      1  0.4784380000000  0.4799680000000  0.4690140000000 1.0
C      1  0.4692410000000  0.5218350000000  0.4795600000000 1.0
C      1  0.5203050000000  0.5310320000000  0.5214280000000 1.0
C      1  0.4784380000000  0.4799680000000  0.5306240000000 1.0
C      1  0.4692410000000  0.4786180000000  0.5200780000000 1.0
C      1  0.5308510000000  0.4786180000000  0.4795600000000 1.0
C      1  0.5308510000000  0.5218350000000  0.5200780000000 1.0
C      1  0.5203050000000  0.4694220000000  0.4782110000000 1.0
C      1  0.4797870000000  0.4694220000000  0.5214280000000 1.0
C      1  0.4797870000000  0.5310320000000  0.4782110000000 1.0
C      1  0.4784380000000  0.5204860000000  0.4690140000000 1.0
C      1  0.5216550000000  0.5204860000000  0.5306240000000 1.0
C      1  0.5216540000000  0.4799680000000  0.4690140000000 1.0
C      1  0.5171460000000  0.4371300000000  0.5076510000000 1.0
C      1  0.5078770000000  0.5173270000000  0.4367230000000 1.0
C      1  0.4369500000000  0.5080580000000  0.5169190000000 1.0
C      1  0.5171460000000  0.5633230000000  0.4919880000000 1.0
C      1  0.4829460000000  0.5633230000000  0.5076510000000 1.0
C      1  0.4829460000000  0.4371300000000  0.4919880000000 1.0
C      1  0.5078770000000  0.4831270000000  0.5629160000000 1.0
C      1  0.4922150000000  0.4831270000000  0.4367230000000 1.0
C      1  0.4922150000000  0.5173270000000  0.5629160000000 1.0
C      1  0.4369500000000  0.4923960000000  0.4827190000000 1.0
C      1  0.5631430000000  0.4923960000000  0.5169190000000 1.0
C      1  0.5631430000000  0.5080580000000  0.4827190000000 1.0
C      1  0.4829460000000  0.4371300000000  0.5076510000000 1.0
C      1  0.4922150000000  0.5173270000000  0.4367230000000 1.0
C      1  0.5631430000000  0.5080580000000  0.5169190000000 1.0
C      1  0.4829460000000  0.5633230000000  0.4919880000000 1.0
C      1  0.5171460000000  0.5633230000000  0.5076510000000 1.0
C      1  0.5171460000000  0.4371300000000  0.4919880000000 1.0
C      1  0.4922150000000  0.4831270000000  0.5629160000000 1.0
C      1  0.5078770000000  0.4831270000000  0.4367230000000 1.0
C      1  0.5078770000000  0.5173270000000  0.5629160000000 1.0
C      1  0.5631430000000  0.4923960000000  0.4827190000000 1.0
C      1  0.4369500000000  0.4923960000000  0.5169190000000 1.0
C      1  0.4369500000000  0.5080580000000  0.4827190000000 1.0
C      1  0.5149480000000  0.5069900000000  0.4471190000000 1.0
C      1  0.4473460000000  0.5151290000000  0.5065820000000 1.0
C      1  0.5068090000000  0.4475270000000  0.5147210000000 1.0
C      1  0.5149480000000  0.4934640000000  0.5525190000000 1.0
C      1  0.4851440000000  0.4934640000000  0.4471190000000 1.0
C      1  0.4851440000000  0.5069900000000  0.5525190000000 1.0
C      1  0.4473460000000  0.4853250000000  0.4930560000000 1.0
C      1  0.5527460000000  0.4853250000000  0.5065820000000 1.0
C      1  0.5527460000000  0.5151290000000  0.4930560000000 1.0
C      1  0.5068090000000  0.5529270000000  0.4849170000000 1.0
C      1  0.4932830000000  0.5529270000000  0.5147210000000 1.0
C      1  0.4932830000000  0.4475270000000  0.4849170000000 1.0
C      1  0.4851440000000  0.5069900000000  0.4471190000000 1.0
C      1  0.5527460000000  0.5151290000000  0.5065820000000 1.0
C      1  0.4932830000000  0.4475270000000  0.5147210000000 1.0
C      1  0.4851440000000  0.4934640000000  0.5525190000000 1.0
C      1  0.5149480000000  0.4934640000000  0.4471190000000 1.0
C      1  0.5149480000000  0.5069900000000  0.5525190000000 1.0
C      1  0.5527460000000  0.4853250000000  0.4930560000000 1.0
C      1  0.4473460000000  0.4853250000000  0.5065820000000 1.0
C      1  0.4473460000000  0.5151290000000  0.4930560000000 1.0
C      1  0.4932830000000  0.5529270000000  0.4849170000000 1.0
C      1  0.5068090000000  0.5529270000000  0.5147210000000 1.0
C      1  0.5068090000000  0.4475270000000  0.4849170000000 1.0
C      1  0.5440350000000  0.5184660000000  0.4820090000000 1.0
C      1  0.4822360000000  0.5442160000000  0.5180590000000 1.0
C      1  0.5182850000000  0.4824170000000  0.5438080000000 1.0
C      1  0.5440350000000  0.4819880000000  0.5176290000000 1.0
C      1  0.4560570000000  0.4819880000000  0.4820090000000 1.0
C      1  0.4560570000000  0.5184660000000  0.5176290000000 1.0
C      1  0.4822360000000  0.4562380000000  0.4815800000000 1.0
C      1  0.5178560000000  0.4562380000000  0.5180590000000 1.0
C      1  0.5178560000000  0.5442160000000  0.4815800000000 1.0
C      1  0.5182850000000  0.5180370000000  0.4558300000000 1.0
C      1  0.4818070000000  0.5180370000000  0.5438080000000 1.0
C      1  0.4818070000000  0.4824170000000  0.4558300000000 1.0
C      1  0.4560570000000  0.5184660000000  0.4820090000000 1.0
C      1  0.5178560000000  0.5442160000000  0.5180590000000 1.0
C      1  0.4818070000000  0.4824170000000  0.5438080000000 1.0
C      1  0.4560570000000  0.4819880000000  0.5176290000000 1.0
C      1  0.5440350000000  0.4819880000000  0.4820090000000 1.0
C      1  0.5440350000000  0.5184660000000  0.5176290000000 1.0
C      1  0.5178560000000  0.4562380000000  0.4815800000000 1.0
C      1  0.4822360000000  0.4562380000000  0.5180590000000 1.0
C      1  0.4822360000000  0.5442160000000  0.4815800000000 1.0
C      1  0.4818070000000  0.5180370000000  0.4558300000000 1.0
C      1  0.5182850000000  0.5180370000000  0.5438080000000 1.0
C      1  0.5182850000000  0.4824170000000  0.4558300000000 1.0
C      1  0.5073040000000  0.4928690000000  0.5849630000000 1.0
C      1  0.5851900000000  0.5074850000000  0.4924610000000 1.0
C      1  0.4926880000000  0.5853710000000  0.5070770000000 1.0
C      1  0.5073040000000  0.5075850000000  0.4146750000000 1.0
C      1  0.4927880000000  0.5075850000000  0.5849630000000 1.0
C      1  0.4927880000000  0.4928690000000  0.4146750000000 1.0
C      1  0.5851900000000  0.4929690000000  0.5071770000000 1.0
C      1  0.4149020000000  0.4929690000000  0.4924610000000 1.0
C      1  0.4149020000000  0.5074850000000  0.5071770000000 1.0
C      1  0.4926880000000  0.4150830000000  0.4925620000000 1.0
C      1  0.5074040000000  0.4150830000000  0.5070770000000 1.0
C      1  0.5074040000000  0.5853710000000  0.4925620000000 1.0
C      1  0.4927880000000  0.4928690000000  0.5849630000000 1.0
C      1  0.4149020000000  0.5074850000000  0.4924610000000 1.0
C      1  0.5074040000000  0.5853710000000  0.5070770000000 1.0
C      1  0.4927880000000  0.5075850000000  0.4146750000000 1.0
C      1  0.5073040000000  0.5075850000000  0.5849630000000 1.0
C      1  0.5073040000000  0.4928690000000  0.4146750000000 1.0
C      1  0.4149020000000  0.4929690000000  0.5071770000000 1.0
C      1  0.5851900000000  0.4929690000000  0.4924610000000 1.0
C      1  0.5851900000000  0.5074850000000  0.5071770000000 1.0
C      1  0.5074040000000  0.4150830000000  0.4925620000000 1.0
C      1  0.4926880000000  0.4150830000000  0.5070770000000 1.0
C      1  0.4926880000000  0.5853710000000  0.4925620000000 1.0
C      1  0.5000460000000  0.5770060000000  0.5382200000000 1.0
C      1  0.4616450000000  0.5002270000000  0.5765990000000 1.0
C      1  0.5384470000000  0.5002270000000  0.4230400000000 1.0
C      1  0.5384470000000  0.5002270000000  0.5765990000000 1.0
C      1  0.5000460000000  0.4234480000000  0.4614180000000 1.0
C      1  0.4616450000000  0.5002270000000  0.4230400000000 1.0
C      1  0.4232670000000  0.4618260000000  0.4998190000000 1.0
C      1  0.4232670000000  0.5386280000000  0.4998190000000 1.0
C      1  0.5768250000000  0.5386280000000  0.4998190000000 1.0
C      1  0.5768250000000  0.4618260000000  0.4998190000000 1.0
C      1  0.5000460000000  0.5770060000000  0.4614180000000 1.0
C      1  0.5000460000000  0.4234470000000  0.5382200000000 1.0
C      1  0.4566870000000  0.4568680000000  0.5431780000000 1.0
C      1  0.4566870000000  0.5435850000000  0.4564610000000 1.0
C      1  0.5434050000000  0.4568680000000  0.4564610000000 1.0
C      1  0.5434050000000  0.4568680000000  0.5431780000000 1.0
C      1  0.5434050000000  0.5435850000000  0.4564610000000 1.0
C      1  0.4566870000000  0.5435850000000  0.5431780000000 1.0
C      1  0.5434050000000  0.5435850000000  0.5431780000000 1.0
C      1  0.4566870000000  0.4568680000000  0.4564610000000 1.0
END
