TITL C-1892072-9074-45 -5.13278698678253e-07 1000000 -2345.57881614906 0 0 340 (C1) n - 1
REM
REM in /nfs/bkarasulu/CARBON/AIRSS/Generating-Clusters/GAP-ML-2020/Higher-Symm/Selected-Sizes/TryA-Only_Ih-Symm/Larger-Clusters
REM
REM
REM
REM
REM
REM ./C.cell (2cf5181f0f1d4d5b12b972d32ad12063)
REM
REM compiler GCC version 9.2.1 20190827 (Red Hat 9.2.1-1)
REM options -cpp -mtune=generic -march=x86-64 -g -O0 -fpre-include=/usr/include/finclude/math-vector-fortran.h
REM seed -1618808133 17774713 2070644129 -1490262390 709124279 1605640632 579928769 -371474856 134554048 338978183 1698546247 2138117152 991345170 -1015953617 -1893436185 1809055531 237568404 -1493944599 1032732769 -488578942 1419140240 -818579691 -879572794 1932467615 -1704057861 -2110251951 -289003376 -696520899 -60515109 -1010340416 -1745269530 -287371452 -406262650
REM
CELL 1.54180  100.00000  100.00000  100.00000   90.00000   90.00000   90.00000
LATT -1
SFAC C  
C      1  0.4773220000000  0.4582790000000  0.5326740000000 1.0
C      1  0.5324520000000  0.4773010000000  0.4578630000000 1.0
C      1  0.4578000000000  0.5328690000000  0.4788790000000 1.0
C      1  0.4777240000000  0.5424210000000  0.4691790000000 1.0
C      1  0.5199790000000  0.5433080000000  0.5326570000000 1.0
C      1  0.5226520000000  0.4574500000000  0.4678440000000 1.0
C      1  0.5294380000000  0.5233550000000  0.5425020000000 1.0
C      1  0.4677710000000  0.5226800000000  0.4594030000000 1.0
C      1  0.4669880000000  0.4779370000000  0.5425740000000 1.0
C      1  0.4576940000000  0.4679800000000  0.5225680000000 1.0
C      1  0.5423230000000  0.4675660000000  0.4777250000000 1.0
C      1  0.5396750000000  0.5328400000000  0.5227960000000 1.0
C      1  0.4775730000000  0.5324160000000  0.4592130000000 1.0
C      1  0.5324110000000  0.4575110000000  0.4777020000000 1.0
C      1  0.4574070000000  0.4777960000000  0.5322310000000 1.0
C      1  0.4770090000000  0.4683300000000  0.5426110000000 1.0
C      1  0.5198210000000  0.5333730000000  0.5427070000000 1.0
C      1  0.5226900000000  0.4674410000000  0.4578520000000 1.0
C      1  0.5297440000000  0.5428570000000  0.5227910000000 1.0
C      1  0.4676920000000  0.4580910000000  0.5227520000000 1.0
C      1  0.4678180000000  0.5427300000000  0.4788100000000 1.0
C      1  0.4579360000000  0.5227190000000  0.4695290000000 1.0
C      1  0.5423610000000  0.4773650000000  0.4679060000000 1.0
C      1  0.5395130000000  0.5231010000000  0.5326150000000 1.0
C      1  0.5092570000000  0.4472600000000  0.5743080000000 1.0
C      1  0.5750720000000  0.5069870000000  0.4459680000000 1.0
C      1  0.4467350000000  0.5775300000000  0.5063200000000 1.0
C      1  0.5061630000000  0.5531700000000  0.4248030000000 1.0
C      1  0.4922820000000  0.5559620000000  0.5763900000000 1.0
C      1  0.4931420000000  0.4455750000000  0.4250480000000 1.0
C      1  0.5740940000000  0.4949380000000  0.5537620000000 1.0
C      1  0.4263260000000  0.4906390000000  0.4478100000000 1.0
C      1  0.4280010000000  0.5108260000000  0.5527850000000 1.0
C      1  0.4466460000000  0.4244000000000  0.4936730000000 1.0
C      1  0.5547570000000  0.4253470000000  0.5075840000000 1.0
C      1  0.5522980000000  0.5739240000000  0.4907620000000 1.0
C      1  0.5095300000000  0.5738330000000  0.4470280000000 1.0
C      1  0.5750340000000  0.4460940000000  0.5076930000000 1.0
C      1  0.4457330000000  0.5066220000000  0.5761010000000 1.0
C      1  0.5063070000000  0.4247000000000  0.5539780000000 1.0
C      1  0.4898760000000  0.5758720000000  0.5553300000000 1.0
C      1  0.4932260000000  0.4249410000000  0.4454340000000 1.0
C      1  0.5746050000000  0.5533760000000  0.4944980000000 1.0
C      1  0.4261290000000  0.4467450000000  0.4903930000000 1.0
C      1  0.4250270000000  0.5568260000000  0.5067670000000 1.0
C      1  0.4466950000000  0.4940770000000  0.4252960000000 1.0
C      1  0.5547380000000  0.5068290000000  0.4253290000000 1.0
C      1  0.5515530000000  0.4914250000000  0.5740670000000 1.0
C      1  0.5437430000000  0.5252920000000  0.4336110000000 1.0
C      1  0.4346290000000  0.5488640000000  0.5264520000000 1.0
C      1  0.5250520000000  0.4340530000000  0.5434940000000 1.0
C      1  0.5452270000000  0.4728820000000  0.5626730000000 1.0
C      1  0.4571200000000  0.4751040000000  0.4342910000000 1.0
C      1  0.4574240000000  0.5250490000000  0.5709220000000 1.0
C      1  0.4377720000000  0.4537510000000  0.4722220000000 1.0
C      1  0.5662050000000  0.4569540000000  0.5260040000000 1.0
C      1  0.5657730000000  0.5430220000000  0.4754510000000 1.0
C      1  0.5277950000000  0.5622860000000  0.4539470000000 1.0
C      1  0.4711550000000  0.5664110000000  0.5463820000000 1.0
C      1  0.4747380000000  0.4332860000000  0.4563120000000 1.0
C      1  0.5437430000000  0.4337010000000  0.5259810000000 1.0
C      1  0.4391480000000  0.5302030000000  0.5461360000000 1.0
C      1  0.5250670000000  0.5428460000000  0.4339600000000 1.0
C      1  0.5457930000000  0.5623580000000  0.4723810000000 1.0
C      1  0.4571270000000  0.4336580000000  0.4749020000000 1.0
C      1  0.4549630000000  0.5684670000000  0.5260040000000 1.0
C      1  0.4378030000000  0.4722090000000  0.4543180000000 1.0
C      1  0.5664470000000  0.5254390000000  0.4567430000000 1.0
C      1  0.5653310000000  0.4758090000000  0.5434450000000 1.0
C      1  0.5274520000000  0.4543070000000  0.5627180000000 1.0
C      1  0.4736690000000  0.5436030000000  0.5698320000000 1.0
C      1  0.4746960000000  0.4563640000000  0.4336700000000 1.0
C      1  0.5254250000000  0.5344630000000  0.4839670000000 1.0
C      1  0.4818310000000  0.5275440000000  0.5378520000000 1.0
C      1  0.5349620000000  0.4843150000000  0.5247080000000 1.0
C      1  0.5253850000000  0.4640400000000  0.5152900000000 1.0
C      1  0.4755750000000  0.4639290000000  0.4844060000000 1.0
C      1  0.4726310000000  0.5373690000000  0.5179040000000 1.0
C      1  0.4851600000000  0.4740410000000  0.4644540000000 1.0
C      1  0.5154530000000  0.4741960000000  0.5346660000000 1.0
C      1  0.5157310000000  0.5244600000000  0.4642700000000 1.0
C      1  0.5356850000000  0.5149550000000  0.4744120000000 1.0
C      1  0.4628120000000  0.5169380000000  0.5266250000000 1.0
C      1  0.4656720000000  0.4836840000000  0.4746730000000 1.0
C      1  0.5249330000000  0.4840390000000  0.5346050000000 1.0
C      1  0.4822490000000  0.5373120000000  0.5275650000000 1.0
C      1  0.5354020000000  0.5245220000000  0.4842960000000 1.0
C      1  0.5256430000000  0.5149240000000  0.4641900000000 1.0
C      1  0.4756380000000  0.4839740000000  0.4647020000000 1.0
C      1  0.4717550000000  0.5181550000000  0.5378910000000 1.0
C      1  0.4851290000000  0.4638290000000  0.4745040000000 1.0
C      1  0.5158780000000  0.5344460000000  0.4742270000000 1.0
C      1  0.5154380000000  0.4641270000000  0.5247930000000 1.0
C      1  0.5353500000000  0.4743290000000  0.5152470000000 1.0
C      1  0.4623610000000  0.5277060000000  0.5177930000000 1.0
C      1  0.4656150000000  0.4739150000000  0.4842380000000 1.0
C      1  0.4553450000000  0.5554120000000  0.4662580000000 1.0
C      1  0.4649950000000  0.4554250000000  0.5554510000000 1.0
C      1  0.5555500000000  0.4648300000000  0.4552410000000 1.0
C      1  0.4550780000000  0.4450470000000  0.5349310000000 1.0
C      1  0.5453260000000  0.4445140000000  0.4652810000000 1.0
C      1  0.5429710000000  0.5557940000000  0.5348110000000 1.0
C      1  0.4651840000000  0.5449030000000  0.4462070000000 1.0
C      1  0.5330950000000  0.5457520000000  0.5554470000000 1.0
C      1  0.5353230000000  0.4547010000000  0.4448980000000 1.0
C      1  0.5528680000000  0.5353010000000  0.5451370000000 1.0
C      1  0.4448300000000  0.5347830000000  0.4565910000000 1.0
C      1  0.4442500000000  0.4648540000000  0.5449940000000 1.0
C      1  0.4546690000000  0.4652530000000  0.5552350000000 1.0
C      1  0.4654020000000  0.5553670000000  0.4562120000000 1.0
C      1  0.5555210000000  0.4548270000000  0.4653290000000 1.0
C      1  0.4551110000000  0.5348180000000  0.4464040000000 1.0
C      1  0.5453510000000  0.4647680000000  0.4449200000000 1.0
C      1  0.5427420000000  0.5353040000000  0.5554390000000 1.0
C      1  0.4650690000000  0.4452350000000  0.5451240000000 1.0
C      1  0.5331490000000  0.5560610000000  0.5451190000000 1.0
C      1  0.5353280000000  0.4444470000000  0.4551580000000 1.0
C      1  0.5529520000000  0.5453340000000  0.5350140000000 1.0
C      1  0.4446310000000  0.4549990000000  0.5347190000000 1.0
C      1  0.4449510000000  0.5451550000000  0.4664290000000 1.0
C      1  0.5145070000000  0.5474170000000  0.4680450000000 1.0
C      1  0.4667480000000  0.5137710000000  0.5505390000000 1.0
C      1  0.5484890000000  0.4688220000000  0.5133590000000 1.0
C      1  0.5128890000000  0.4514200000000  0.5309920000000 1.0
C      1  0.4871610000000  0.4508240000000  0.4687270000000 1.0
C      1  0.4840040000000  0.5503530000000  0.5333480000000 1.0
C      1  0.4695450000000  0.4868100000000  0.4520010000000 1.0
C      1  0.5309970000000  0.4857480000000  0.5475550000000 1.0
C      1  0.5314240000000  0.5128880000000  0.4511940000000 1.0
C      1  0.5480280000000  0.5307160000000  0.4871220000000 1.0
C      1  0.4501970000000  0.5345160000000  0.5156430000000 1.0
C      1  0.4526620000000  0.4676950000000  0.4856060000000 1.0
C      1  0.5140600000000  0.4680850000000  0.5476630000000 1.0
C      1  0.4675280000000  0.5504890000000  0.5149030000000 1.0
C      1  0.5487730000000  0.5129790000000  0.4688350000000 1.0
C      1  0.5130740000000  0.5305780000000  0.4515660000000 1.0
C      1  0.4871640000000  0.4684440000000  0.4513710000000 1.0
C      1  0.4851060000000  0.5331480000000  0.5505680000000 1.0
C      1  0.4694760000000  0.4511890000000  0.4870350000000 1.0
C      1  0.5315090000000  0.5474520000000  0.4854530000000 1.0
C      1  0.5312710000000  0.4510700000000  0.5133660000000 1.0
C      1  0.5475830000000  0.4872700000000  0.5308880000000 1.0
C      1  0.4524890000000  0.5087460000000  0.5288890000000 1.0
C      1  0.4527690000000  0.4852850000000  0.4684880000000 1.0
C      1  0.5764580000000  0.4921370000000  0.5314820000000 1.0
C      1  0.5380660000000  0.5775660000000  0.4874090000000 1.0
C      1  0.4912400000000  0.5351210000000  0.5821780000000 1.0
C      1  0.5803120000000  0.5087780000000  0.4646850000000 1.0
C      1  0.4248420000000  0.5134140000000  0.5390550000000 1.0
C      1  0.4228070000000  0.4874030000000  0.4621100000000 1.0
C      1  0.5362280000000  0.4196630000000  0.5093120000000 1.0
C      1  0.4688940000000  0.4221610000000  0.4911330000000 1.0
C      1  0.4685330000000  0.5791050000000  0.5110700000000 1.0
C      1  0.4914040000000  0.4642870000000  0.4198590000000 1.0
C      1  0.5120830000000  0.4615520000000  0.5778750000000 1.0
C      1  0.5087770000000  0.5309100000000  0.4227440000000 1.0
C      1  0.5767350000000  0.5310870000000  0.4918960000000 1.0
C      1  0.5372620000000  0.4880760000000  0.5775800000000 1.0
C      1  0.4878730000000  0.5809690000000  0.5413290000000 1.0
C      1  0.5800920000000  0.4648570000000  0.5093400000000 1.0
C      1  0.4231170000000  0.5349370000000  0.5117870000000 1.0
C      1  0.4225210000000  0.4610390000000  0.4874770000000 1.0
C      1  0.5360420000000  0.5085260000000  0.4197600000000 1.0
C      1  0.4690050000000  0.4914050000000  0.4230350000000 1.0
C      1  0.4674830000000  0.5078410000000  0.5818420000000 1.0
C      1  0.4914290000000  0.4193560000000  0.4640060000000 1.0
C      1  0.5125920000000  0.5775720000000  0.4612320000000 1.0
C      1  0.5089710000000  0.4223390000000  0.5317220000000 1.0
C      1  0.4271210000000  0.5359870000000  0.5248550000000 1.0
C      1  0.5223680000000  0.4250630000000  0.5317730000000 1.0
C      1  0.5336300000000  0.5216160000000  0.4237910000000 1.0
C      1  0.4275170000000  0.4641990000000  0.4743960000000 1.0
C      1  0.5758550000000  0.4672400000000  0.5223780000000 1.0
C      1  0.5745320000000  0.5311990000000  0.4783870000000 1.0
C      1  0.5257110000000  0.5726170000000  0.4643230000000 1.0
C      1  0.4750180000000  0.5766630000000  0.5367790000000 1.0
C      1  0.4783330000000  0.4234090000000  0.4663840000000 1.0
C      1  0.5346490000000  0.4747870000000  0.5728360000000 1.0
C      1  0.4689080000000  0.4779440000000  0.4254530000000 1.0
C      1  0.4681320000000  0.5217400000000  0.5800160000000 1.0
C      1  0.4297160000000  0.5266820000000  0.5355150000000 1.0
C      1  0.5222390000000  0.5310040000000  0.4251810000000 1.0
C      1  0.5337570000000  0.4237380000000  0.5223870000000 1.0
C      1  0.4275930000000  0.4741470000000  0.4648440000000 1.0
C      1  0.5761270000000  0.5218370000000  0.4670180000000 1.0
C      1  0.5741950000000  0.4786480000000  0.5316760000000 1.0
C      1  0.5251610000000  0.4647840000000  0.5729080000000 1.0
C      1  0.4779740000000  0.5332730000000  0.5796330000000 1.0
C      1  0.4783110000000  0.4666010000000  0.4239650000000 1.0
C      1  0.5353240000000  0.5726390000000  0.4742080000000 1.0
C      1  0.4688900000000  0.4247660000000  0.4777150000000 1.0
C      1  0.4672420000000  0.5768870000000  0.5247180000000 1.0
C      1  0.4447390000000  0.4824920000000  0.4323960000000 1.0
C      1  0.4350210000000  0.4420960000000  0.4800980000000 1.0
C      1  0.4820050000000  0.4331000000000  0.4436150000000 1.0
C      1  0.4446800000000  0.5185300000000  0.5693410000000 1.0
C      1  0.5564780000000  0.5180640000000  0.4334700000000 1.0
C      1  0.5566050000000  0.4811320000000  0.5653930000000 1.0
C      1  0.4328110000000  0.5601060000000  0.5177000000000 1.0
C      1  0.5676530000000  0.5553930000000  0.4828300000000 1.0
C      1  0.5667760000000  0.4442020000000  0.5188220000000 1.0
C      1  0.4789810000000  0.5668370000000  0.5586470000000 1.0
C      1  0.5198210000000  0.5649550000000  0.4423340000000 1.0
C      1  0.5177430000000  0.4320430000000  0.5559030000000 1.0
C      1  0.4446950000000  0.4316060000000  0.4821530000000 1.0
C      1  0.4350850000000  0.4803580000000  0.4428680000000 1.0
C      1  0.4819640000000  0.4436590000000  0.4332390000000 1.0
C      1  0.4433570000000  0.5704060000000  0.5175420000000 1.0
C      1  0.5564760000000  0.4335700000000  0.5187780000000 1.0
C      1  0.5572330000000  0.5650790000000  0.4805680000000 1.0
C      1  0.4369120000000  0.5212480000000  0.5575790000000 1.0
C      1  0.5670990000000  0.4832990000000  0.5557750000000 1.0
C      1  0.5668620000000  0.5181490000000  0.4440450000000 1.0
C      1  0.4805280000000  0.5567260000000  0.5692240000000 1.0
C      1  0.5196490000000  0.4426160000000  0.5655070000000 1.0
C      1  0.5177300000000  0.5552240000000  0.4319080000000 1.0
C      1  0.4591710000000  0.5000650000000  0.4276860000000 1.0
C      1  0.4281430000000  0.4573580000000  0.4996540000000 1.0
C      1  0.5011150000000  0.4262180000000  0.4569460000000 1.0
C      1  0.4582850000000  0.5003630000000  0.5745460000000 1.0
C      1  0.5432330000000  0.4989410000000  0.4266300000000 1.0
C      1  0.5406270000000  0.5002200000000  0.5717070000000 1.0
C      1  0.4271390000000  0.5437760000000  0.5019420000000 1.0
C      1  0.5720630000000  0.5409380000000  0.5005260000000 1.0
C      1  0.5734820000000  0.4574910000000  0.4997100000000 1.0
C      1  0.4997110000000  0.5744200000000  0.5449480000000 1.0
C      1  0.5003660000000  0.5718970000000  0.4577660000000 1.0
C      1  0.5001980000000  0.4268730000000  0.5415170000000 1.0
C      1  0.4590510000000  0.4266870000000  0.4998590000000 1.0
C      1  0.4285800000000  0.4995730000000  0.4586550000000 1.0
C      1  0.5010480000000  0.4570340000000  0.4265690000000 1.0
C      1  0.4596430000000  0.5747820000000  0.5013530000000 1.0
C      1  0.5432840000000  0.4265130000000  0.4996170000000 1.0
C      1  0.5413790000000  0.5718290000000  0.4996410000000 1.0
C      1  0.4281700000000  0.5004680000000  0.5428590000000 1.0
C      1  0.5716680000000  0.5008120000000  0.5412340000000 1.0
C      1  0.5736090000000  0.4991060000000  0.4574560000000 1.0
C      1  0.4994970000000  0.5439910000000  0.5752150000000 1.0
C      1  0.4999330000000  0.4578260000000  0.5721850000000 1.0
C      1  0.5000480000000  0.5407580000000  0.4272480000000 1.0
C      1  0.4430120000000  0.4786570000000  0.5386810000000 1.0
C      1  0.5390790000000  0.4436390000000  0.4794480000000 1.0
C      1  0.4792980000000  0.5388090000000  0.4450300000000 1.0
C      1  0.4442490000000  0.5205790000000  0.4631420000000 1.0
C      1  0.5536790000000  0.5211940000000  0.5391080000000 1.0
C      1  0.5563350000000  0.4790380000000  0.4614110000000 1.0
C      1  0.5364440000000  0.5563640000000  0.5206240000000 1.0
C      1  0.4615100000000  0.5568680000000  0.4804140000000 1.0
C      1  0.4612740000000  0.4440280000000  0.5207990000000 1.0
C      1  0.4791240000000  0.4619900000000  0.5562480000000 1.0
C      1  0.5211010000000  0.4608640000000  0.4439270000000 1.0
C      1  0.5187920000000  0.5402000000000  0.5567490000000 1.0
C      1  0.4437990000000  0.5395260000000  0.4807270000000 1.0
C      1  0.5391190000000  0.4789350000000  0.4439640000000 1.0
C      1  0.4792630000000  0.4442450000000  0.5392430000000 1.0
C      1  0.4439940000000  0.4615350000000  0.5205490000000 1.0
C      1  0.5539580000000  0.5391670000000  0.5209720000000 1.0
C      1  0.5562720000000  0.4610960000000  0.4795160000000 1.0
C      1  0.5359610000000  0.5211620000000  0.5560780000000 1.0
C      1  0.4601800000000  0.4796220000000  0.5565350000000 1.0
C      1  0.4612100000000  0.5206930000000  0.4453920000000 1.0
C      1  0.4796130000000  0.5560650000000  0.4625580000000 1.0
C      1  0.5211070000000  0.4435140000000  0.4612400000000 1.0
C      1  0.5189350000000  0.5571940000000  0.5392030000000 1.0
C      1  0.4608920000000  0.4501910000000  0.4980590000000 1.0
C      1  0.4981630000000  0.4598260000000  0.4501930000000 1.0
C      1  0.4516050000000  0.4973250000000  0.4613840000000 1.0
C      1  0.4599360000000  0.5512500000000  0.5032480000000 1.0
C      1  0.5385030000000  0.5487580000000  0.4974920000000 1.0
C      1  0.5399150000000  0.4500550000000  0.5023750000000 1.0
C      1  0.4959960000000  0.5418710000000  0.5513030000000 1.0
C      1  0.5020480000000  0.5391680000000  0.4506790000000 1.0
C      1  0.5023130000000  0.4605830000000  0.5490370000000 1.0
C      1  0.4511190000000  0.5004330000000  0.5391230000000 1.0
C      1  0.5499700000000  0.5019490000000  0.4602660000000 1.0
C      1  0.5481690000000  0.4984410000000  0.5393120000000 1.0
C      1  0.4610700000000  0.4979380000000  0.4512250000000 1.0
C      1  0.4981840000000  0.4497870000000  0.4601330000000 1.0
C      1  0.4512890000000  0.4602150000000  0.4973770000000 1.0
C      1  0.4591510000000  0.5020950000000  0.5507890000000 1.0
C      1  0.5379220000000  0.4978810000000  0.5486910000000 1.0
C      1  0.5400520000000  0.5018860000000  0.4502010000000 1.0
C      1  0.4956320000000  0.5514180000000  0.5410790000000 1.0
C      1  0.5018700000000  0.4504050000000  0.5395760000000 1.0
C      1  0.5027040000000  0.5487700000000  0.4606990000000 1.0
C      1  0.4499200000000  0.5415030000000  0.5035190000000 1.0
C      1  0.5498000000000  0.4601480000000  0.5024160000000 1.0
C      1  0.5486410000000  0.5392750000000  0.4981870000000 1.0
C      1  0.5516480000000  0.4746890000000  0.5386190000000 1.0
C      1  0.5400860000000  0.5489880000000  0.4716600000000 1.0
C      1  0.4714800000000  0.5366030000000  0.5571280000000 1.0
C      1  0.5536500000000  0.5277810000000  0.4634880000000 1.0
C      1  0.4492850000000  0.5398280000000  0.5429140000000 1.0
C      1  0.4511770000000  0.4714380000000  0.4599800000000 1.0
C      1  0.5366420000000  0.4463430000000  0.5281230000000 1.0
C      1  0.4619010000000  0.4473920000000  0.4742530000000 1.0
C      1  0.4594230000000  0.5549010000000  0.5275150000000 1.0
C      1  0.4723670000000  0.4631500000000  0.4464570000000 1.0
C      1  0.5281410000000  0.4599410000000  0.5492840000000 1.0
C      1  0.5258270000000  0.5381510000000  0.4477190000000 1.0
C      1  0.5520500000000  0.5382900000000  0.4744300000000 1.0
C      1  0.5396360000000  0.4719890000000  0.5492810000000 1.0
C      1  0.4685770000000  0.5538730000000  0.5394340000000 1.0
C      1  0.5533500000000  0.4636560000000  0.5282180000000 1.0
C      1  0.4481010000000  0.5451690000000  0.5293120000000 1.0
C      1  0.4511770000000  0.4594710000000  0.4715780000000 1.0
C      1  0.5367890000000  0.5276180000000  0.4462930000000 1.0
C      1  0.4618930000000  0.4741380000000  0.4480030000000 1.0
C      1  0.4661190000000  0.5237020000000  0.5599490000000 1.0
C      1  0.4724610000000  0.4459650000000  0.4633120000000 1.0
C      1  0.5284830000000  0.5489180000000  0.4597330000000 1.0
C      1  0.5256470000000  0.4477640000000  0.5386280000000 1.0
C      1  0.4605660000000  0.5080260000000  0.4403310000000 1.0
C      1  0.4399950000000  0.4601470000000  0.5074340000000 1.0
C      1  0.5083640000000  0.4388060000000  0.4597670000000 1.0
C      1  0.4591690000000  0.4924300000000  0.5617780000000 1.0
C      1  0.5404750000000  0.4916870000000  0.4392400000000 1.0
C      1  0.5376740000000  0.5080000000000  0.5598970000000 1.0
C      1  0.4391790000000  0.5413290000000  0.4934880000000 1.0
C      1  0.5593380000000  0.5396910000000  0.5084070000000 1.0
C      1  0.5608820000000  0.4599090000000  0.4923230000000 1.0
C      1  0.5062740000000  0.5621550000000  0.5411820000000 1.0
C      1  0.4926820000000  0.5600480000000  0.4607450000000 1.0
C      1  0.4919810000000  0.4393290000000  0.5400630000000 1.0
C      1  0.4604220000000  0.4391720000000  0.5080530000000 1.0
C      1  0.4403650000000  0.5074260000000  0.4615220000000 1.0
C      1  0.5083440000000  0.4595760000000  0.4391960000000 1.0
C      1  0.4606950000000  0.5620450000000  0.4930980000000 1.0
C      1  0.5404290000000  0.4390250000000  0.4922430000000 1.0
C      1  0.5383070000000  0.5600840000000  0.5074680000000 1.0
C      1  0.4389210000000  0.4914350000000  0.5403380000000 1.0
C      1  0.5589340000000  0.5086020000000  0.5397550000000 1.0
C      1  0.5609960000000  0.4918100000000  0.4600580000000 1.0
C      1  0.5063600000000  0.5419930000000  0.5620680000000 1.0
C      1  0.4922350000000  0.4605370000000  0.5602930000000 1.0
C      1  0.4919380000000  0.5395350000000  0.4398290000000 1.0
C      1  0.5444460000000  0.5345030000000  0.4555890000000 1.0
C      1  0.4621780000000  0.5432500000000  0.5474050000000 1.0
C      1  0.5441590000000  0.4557760000000  0.5349770000000 1.0
C      1  0.4656000000000  0.4553000000000  0.4556740000000 1.0
END
