TITL C-1892079-7001-63 -3.25918232429655e-07 1000000 -1357.42707993271 0 0 200 (C3) n - 1
REM
REM in /nfs/bkarasulu/CARBON/AIRSS/Generating-Clusters/GAP-ML-2020/Higher-Symm/Selected-Sizes/TryA-Only_Ih-Symm/Larger-Clusters
REM
REM
REM
REM
REM
REM ./C.cell (2cf5181f0f1d4d5b12b972d32ad12063)
REM
REM compiler GCC version 9.2.1 20190827 (Red Hat 9.2.1-1)
REM options -cpp -mtune=generic -march=x86-64 -g -O0 -fpre-include=/usr/include/finclude/math-vector-fortran.h
REM seed -1584820190 1272445351 -968398273 1228301408 888935292 846325304 -1339600204 394888648 645558352 617401658 -632666500 42610567 698739410 994937078 -536790731 -1682333999 -7421280 -966900669 318445338 -1586074545 -1002980639 -1151125578 -1438677017 -364544848 -661970350 -323806041 -409590701 -1044888473 -1621942033 823697076 2021522220 -1554513691 -1861740344
REM
CELL 1.54180  100.00000  100.00000  100.00000   90.00000   90.00000   90.00000
LATT -1
SFAC C  
C      1  0.4934430000000  0.5374020000000  0.4683700000000 1.0
C      1  0.4687960000000  0.4929620000000  0.5368470000000 1.0
C      1  0.5373600000000  0.4686580000000  0.4928230000000 1.0
C      1  0.4935210000000  0.4625780000000  0.5313810000000 1.0
C      1  0.5072600000000  0.4628810000000  0.4685000000000 1.0
C      1  0.5072800000000  0.5370060000000  0.5312870000000 1.0
C      1  0.4687020000000  0.5067210000000  0.4624190000000 1.0
C      1  0.5317140000000  0.5067980000000  0.5372430000000 1.0
C      1  0.5315830000000  0.4929810000000  0.4627230000000 1.0
C      1  0.5376640000000  0.5315390000000  0.5065630000000 1.0
C      1  0.4632360000000  0.5314450000000  0.4928030000000 1.0
C      1  0.4628400000000  0.4685280000000  0.5066400000000 1.0
C      1  0.5072700000000  0.5370590000000  0.4684850000000 1.0
C      1  0.5315990000000  0.4929720000000  0.5369000000000 1.0
C      1  0.4631830000000  0.4686420000000  0.4928140000000 1.0
C      1  0.5072850000000  0.4629070000000  0.5312800000000 1.0
C      1  0.4934330000000  0.4625420000000  0.4684200000000 1.0
C      1  0.4935210000000  0.5373380000000  0.5314020000000 1.0
C      1  0.5316640000000  0.5068080000000  0.4623830000000 1.0
C      1  0.4686810000000  0.5067200000000  0.5371790000000 1.0
C      1  0.4688030000000  0.4929560000000  0.4627480000000 1.0
C      1  0.4629040000000  0.5315600000000  0.5065620000000 1.0
C      1  0.5373350000000  0.5314380000000  0.4927990000000 1.0
C      1  0.5377000000000  0.4685770000000  0.5066500000000 1.0
C      1  0.5516690000000  0.4858650000000  0.4830160000000 1.0
C      1  0.4832480000000  0.5513560000000  0.4854620000000 1.0
C      1  0.4858600000000  0.4830710000000  0.5511210000000 1.0
C      1  0.5515130000000  0.5146980000000  0.5170280000000 1.0
C      1  0.4489630000000  0.5143820000000  0.4829100000000 1.0
C      1  0.4488850000000  0.4856190000000  0.5168350000000 1.0
C      1  0.4830540000000  0.4487290000000  0.5145400000000 1.0
C      1  0.5170660000000  0.4485720000000  0.4857070000000 1.0
C      1  0.5171720000000  0.5512790000000  0.5142240000000 1.0
C      1  0.4855420000000  0.5171890000000  0.4485720000000 1.0
C      1  0.5146220000000  0.5169940000000  0.5511980000000 1.0
C      1  0.5143760000000  0.4831760000000  0.4484140000000 1.0
C      1  0.4488510000000  0.4858690000000  0.4830270000000 1.0
C      1  0.5170560000000  0.5513910000000  0.4857110000000 1.0
C      1  0.5143730000000  0.4831860000000  0.5512330000000 1.0
C      1  0.4490510000000  0.5147210000000  0.5170370000000 1.0
C      1  0.5516260000000  0.5143810000000  0.4829440000000 1.0
C      1  0.5516360000000  0.4856640000000  0.5168380000000 1.0
C      1  0.5171390000000  0.4486150000000  0.5142220000000 1.0
C      1  0.4832450000000  0.4486060000000  0.4855070000000 1.0
C      1  0.4830450000000  0.5511890000000  0.5145640000000 1.0
C      1  0.5145760000000  0.5169980000000  0.4484480000000 1.0
C      1  0.4855190000000  0.5171970000000  0.5510310000000 1.0
C      1  0.4858620000000  0.4831050000000  0.4484570000000 1.0
C      1  0.4708790000000  0.4483340000000  0.5072240000000 1.0
C      1  0.5073510000000  0.4708910000000  0.4481630000000 1.0
C      1  0.4484500000000  0.5073320000000  0.4705930000000 1.0
C      1  0.4710870000000  0.5515970000000  0.4927110000000 1.0
C      1  0.5294890000000  0.5517920000000  0.5071750000000 1.0
C      1  0.5293510000000  0.4483210000000  0.4927320000000 1.0
C      1  0.5073720000000  0.5291550000000  0.5514390000000 1.0
C      1  0.4928590000000  0.5293650000000  0.4481770000000 1.0
C      1  0.4929090000000  0.4707530000000  0.5516340000000 1.0
C      1  0.4486440000000  0.4928690000000  0.5289950000000 1.0
C      1  0.5519200000000  0.4928900000000  0.4707320000000 1.0
C      1  0.5519080000000  0.5073820000000  0.5292040000000 1.0
C      1  0.5294660000000  0.4482100000000  0.5071910000000 1.0
C      1  0.4928920000000  0.4707770000000  0.4480520000000 1.0
C      1  0.5520310000000  0.5073490000000  0.4706170000000 1.0
C      1  0.5293430000000  0.5517070000000  0.4927160000000 1.0
C      1  0.4708900000000  0.5516650000000  0.5072140000000 1.0
C      1  0.4710660000000  0.4484280000000  0.4927270000000 1.0
C      1  0.4928690000000  0.5293520000000  0.5515060000000 1.0
C      1  0.5073560000000  0.5291770000000  0.4482710000000 1.0
C      1  0.5073680000000  0.4708990000000  0.5515490000000 1.0
C      1  0.5518140000000  0.4928850000000  0.5290170000000 1.0
C      1  0.4485350000000  0.4928740000000  0.4707390000000 1.0
C      1  0.4485760000000  0.5073710000000  0.5291920000000 1.0
C      1  0.4512780000000  0.4965090000000  0.5505390000000 1.0
C      1  0.5508360000000  0.4510020000000  0.4963050000000 1.0
C      1  0.4913330000000  0.5534700000000  0.4489160000000 1.0
C      1  0.4491180000000  0.5088940000000  0.4466070000000 1.0
C      1  0.5511700000000  0.5089090000000  0.5533080000000 1.0
C      1  0.5492390000000  0.4964630000000  0.4492470000000 1.0
C      1  0.5534740000000  0.5511230000000  0.5087370000000 1.0
C      1  0.4495430000000  0.5489630000000  0.4963510000000 1.0
C      1  0.4467740000000  0.4490720000000  0.5087500000000 1.0
C      1  0.4913470000000  0.4467690000000  0.5509660000000 1.0
C      1  0.5037770000000  0.4494070000000  0.4508430000000 1.0
C      1  0.5037320000000  0.5506990000000  0.5488040000000 1.0
C      1  0.5491010000000  0.4964800000000  0.5505600000000 1.0
C      1  0.4495230000000  0.4511410000000  0.4963210000000 1.0
C      1  0.5037620000000  0.5507200000000  0.4509840000000 1.0
C      1  0.5512120000000  0.5089410000000  0.4467240000000 1.0
C      1  0.4492060000000  0.5089150000000  0.5533880000000 1.0
C      1  0.4511190000000  0.4964420000000  0.4492480000000 1.0
C      1  0.4466930000000  0.5510340000000  0.5087570000000 1.0
C      1  0.5508340000000  0.5491230000000  0.4962860000000 1.0
C      1  0.5533590000000  0.4490280000000  0.5087830000000 1.0
C      1  0.5037990000000  0.4494080000000  0.5489660000000 1.0
C      1  0.4912980000000  0.4468850000000  0.4488700000000 1.0
C      1  0.4913260000000  0.5535500000000  0.5508760000000 1.0
C      1  0.4736770000000  0.4916800000000  0.5080080000000 1.0
C      1  0.5083810000000  0.4734150000000  0.4915790000000 1.0
C      1  0.4919790000000  0.5082690000000  0.4731960000000 1.0
C      1  0.4737020000000  0.5082050000000  0.4915980000000 1.0
C      1  0.5268880000000  0.5082630000000  0.5081110000000 1.0
C      1  0.5268270000000  0.4917370000000  0.4917030000000 1.0
C      1  0.5084850000000  0.5265390000000  0.5080470000000 1.0
C      1  0.4920760000000  0.5265650000000  0.4915220000000 1.0
C      1  0.4919730000000  0.4733540000000  0.5081050000000 1.0
C      1  0.4920370000000  0.4917560000000  0.5263820000000 1.0
C      1  0.5085040000000  0.4918610000000  0.4732560000000 1.0
C      1  0.5085620000000  0.5081660000000  0.5264070000000 1.0
C      1  0.5268700000000  0.4916990000000  0.5080110000000 1.0
C      1  0.4920730000000  0.4733710000000  0.4915410000000 1.0
C      1  0.5085430000000  0.5081690000000  0.4732130000000 1.0
C      1  0.5268500000000  0.5082230000000  0.4915930000000 1.0
C      1  0.4736690000000  0.5082500000000  0.5081060000000 1.0
C      1  0.4737110000000  0.4917300000000  0.4917050000000 1.0
C      1  0.4919770000000  0.5265720000000  0.5080920000000 1.0
C      1  0.5083780000000  0.5265310000000  0.4915730000000 1.0
C      1  0.5084900000000  0.4733910000000  0.5080650000000 1.0
C      1  0.5085110000000  0.4918630000000  0.5263730000000 1.0
C      1  0.4920180000000  0.4917520000000  0.4732330000000 1.0
C      1  0.4919920000000  0.5082640000000  0.5264140000000 1.0
C      1  0.4553490000000  0.5119450000000  0.5408670000000 1.0
C      1  0.5409370000000  0.4552030000000  0.5119670000000 1.0
C      1  0.5124980000000  0.5408810000000  0.4549470000000 1.0
C      1  0.4551910000000  0.4876960000000  0.4590600000000 1.0
C      1  0.5451370000000  0.4877440000000  0.5407220000000 1.0
C      1  0.5450380000000  0.5121260000000  0.4591460000000 1.0
C      1  0.5410230000000  0.5450510000000  0.4875390000000 1.0
C      1  0.4592140000000  0.5448920000000  0.5117870000000 1.0
C      1  0.4593620000000  0.4551040000000  0.4875860000000 1.0
C      1  0.5125450000000  0.4592200000000  0.5448930000000 1.0
C      1  0.4881150000000  0.4593070000000  0.4550450000000 1.0
C      1  0.4882970000000  0.5410280000000  0.5447340000000 1.0
C      1  0.5450610000000  0.5120180000000  0.5408120000000 1.0
C      1  0.4592700000000  0.4551810000000  0.5118600000000 1.0
C      1  0.4882230000000  0.5409740000000  0.4550240000000 1.0
C      1  0.5451770000000  0.4877220000000  0.4590650000000 1.0
C      1  0.4552470000000  0.4877490000000  0.5407180000000 1.0
C      1  0.4553340000000  0.5120360000000  0.4590400000000 1.0
C      1  0.4593640000000  0.5449940000000  0.4875910000000 1.0
C      1  0.5410410000000  0.5449070000000  0.5118790000000 1.0
C      1  0.5410170000000  0.4550640000000  0.4875640000000 1.0
C      1  0.4882050000000  0.4592010000000  0.5447490000000 1.0
C      1  0.5125190000000  0.4592250000000  0.4549060000000 1.0
C      1  0.5124920000000  0.5408780000000  0.5448360000000 1.0
C      1  0.4400650000000  0.4861760000000  0.4936070000000 1.0
C      1  0.4938580000000  0.4398110000000  0.4856020000000 1.0
C      1  0.4859390000000  0.4938350000000  0.4397870000000 1.0
C      1  0.4403720000000  0.5146860000000  0.5062870000000 1.0
C      1  0.5602970000000  0.5143020000000  0.4936730000000 1.0
C      1  0.5604300000000  0.4857590000000  0.5062250000000 1.0
C      1  0.4937950000000  0.5598690000000  0.5145290000000 1.0
C      1  0.5064760000000  0.5601760000000  0.4860190000000 1.0
C      1  0.5064090000000  0.4399450000000  0.5141450000000 1.0
C      1  0.4855540000000  0.5064470000000  0.5597110000000 1.0
C      1  0.5144810000000  0.5063850000000  0.4396530000000 1.0
C      1  0.5140660000000  0.4937670000000  0.5600190000000 1.0
C      1  0.5604740000000  0.4860940000000  0.4936010000000 1.0
C      1  0.5064820000000  0.4397670000000  0.4859350000000 1.0
C      1  0.5141460000000  0.4937610000000  0.4396100000000 1.0
C      1  0.5602350000000  0.5146960000000  0.5063030000000 1.0
C      1  0.4403320000000  0.5142510000000  0.4936600000000 1.0
C      1  0.4401030000000  0.4857800000000  0.5062270000000 1.0
C      1  0.5064210000000  0.5599100000000  0.5140930000000 1.0
C      1  0.4938560000000  0.5601380000000  0.4856230000000 1.0
C      1  0.4937790000000  0.4400070000000  0.5145390000000 1.0
C      1  0.5144620000000  0.5063860000000  0.5599800000000 1.0
C      1  0.4855450000000  0.5064650000000  0.4398500000000 1.0
C      1  0.4859900000000  0.4938210000000  0.5597520000000 1.0
C      1  0.5129450000000  0.4622580000000  0.5180200000000 1.0
C      1  0.5187250000000  0.5126930000000  0.4619610000000 1.0
C      1  0.4625150000000  0.5185690000000  0.5125330000000 1.0
C      1  0.5129440000000  0.5377180000000  0.4816860000000 1.0
C      1  0.4875500000000  0.5377260000000  0.5184110000000 1.0
C      1  0.4875490000000  0.4621190000000  0.4813590000000 1.0
C      1  0.5183970000000  0.4872980000000  0.5375600000000 1.0
C      1  0.4820640000000  0.4872970000000  0.4621000000000 1.0
C      1  0.4816720000000  0.5126920000000  0.5375680000000 1.0
C      1  0.4625230000000  0.4818440000000  0.4871390000000 1.0
C      1  0.5381230000000  0.4815160000000  0.5125340000000 1.0
C      1  0.5379830000000  0.5181780000000  0.4871380000000 1.0
C      1  0.4875740000000  0.4621840000000  0.5183980000000 1.0
C      1  0.4816850000000  0.5126680000000  0.4620260000000 1.0
C      1  0.5380580000000  0.5185560000000  0.5125090000000 1.0
C      1  0.4875410000000  0.5378330000000  0.4813180000000 1.0
C      1  0.5129740000000  0.5376350000000  0.5180250000000 1.0
C      1  0.5129420000000  0.4622310000000  0.4816910000000 1.0
C      1  0.4820590000000  0.4872680000000  0.5374770000000 1.0
C      1  0.5183920000000  0.4873000000000  0.4620730000000 1.0
C      1  0.5187660000000  0.5127010000000  0.5376750000000 1.0
C      1  0.5380110000000  0.4818490000000  0.4871410000000 1.0
C      1  0.4624090000000  0.4814750000000  0.5125420000000 1.0
C      1  0.4626070000000  0.5181830000000  0.4871090000000 1.0
C      1  0.5138910000000  0.4863960000000  0.5134180000000 1.0
C      1  0.5138450000000  0.5135760000000  0.4861930000000 1.0
C      1  0.4867380000000  0.5135030000000  0.5133450000000 1.0
C      1  0.4866770000000  0.4863990000000  0.5133660000000 1.0
C      1  0.4867170000000  0.5135650000000  0.4862410000000 1.0
C      1  0.5138760000000  0.4863660000000  0.4862080000000 1.0
C      1  0.4866650000000  0.4863510000000  0.4862380000000 1.0
C      1  0.5138430000000  0.5135240000000  0.5134070000000 1.0
END
