TITL C-1892076-7001-28 1.72353633436421e-06 1000000 -3962.90871618898 0 0 560 (Th) n - 1
REM
REM in /nfs/bkarasulu/CARBON/AIRSS/Generating-Clusters/GAP-ML-2020/Higher-Symm/Selected-Sizes/TryA-Only_Ih-Symm/Larger-Clusters
REM
REM
REM
REM
REM
REM ./C.cell (2cf5181f0f1d4d5b12b972d32ad12063)
REM
REM compiler GCC version 9.2.1 20190827 (Red Hat 9.2.1-1)
REM options -cpp -mtune=generic -march=x86-64 -g -O0 -fpre-include=/usr/include/finclude/math-vector-fortran.h
REM seed 1016696061 -1021455115 -1868712110 2124082574 488153084 1391406183 -576449981 1318859011 -1574115186 1021692076 1354591350 -585802776 -748306470 1733656182 1510300861 559004104 38814504 1306027814 -1398487368 513346526 -1302702267 262244327 -375832903 1540733069 -1002518061 -1160399522 -1770063390 822828145 913986463 -981440161 -970230321 -1921770383 -600949394
REM
CELL 1.54180  100.00000  100.00000  100.00000   90.00000   90.00000   90.00000
LATT -1
SFAC C  
C      1  0.5150330000000  0.5178690000000  0.5453510000000 1.0
C      1  0.5453540000000  0.5152190000000  0.5176810000000 1.0
C      1  0.5176840000000  0.5455400000000  0.5150300000000 1.0
C      1  0.4845900000000  0.4821250000000  0.5453510000000 1.0
C      1  0.4845900000000  0.5178690000000  0.4542670000000 1.0
C      1  0.5150330000000  0.4821250000000  0.4542670000000 1.0
C      1  0.4542700000000  0.4847760000000  0.5176810000000 1.0
C      1  0.4542690000000  0.5152190000000  0.4819370000000 1.0
C      1  0.5453530000000  0.4847760000000  0.4819370000000 1.0
C      1  0.4819400000000  0.4544560000000  0.5150300000000 1.0
C      1  0.4819390000000  0.5455400000000  0.4845870000000 1.0
C      1  0.5176830000000  0.4544550000000  0.4845870000000 1.0
C      1  0.5150330000000  0.5178700000000  0.4542670000000 1.0
C      1  0.5453530000000  0.5152190000000  0.4819370000000 1.0
C      1  0.5176830000000  0.5455400000000  0.4845870000000 1.0
C      1  0.4845900000000  0.4821250000000  0.4542670000000 1.0
C      1  0.4845900000000  0.5178690000000  0.5453510000000 1.0
C      1  0.5150330000000  0.4821250000000  0.5453510000000 1.0
C      1  0.4542690000000  0.4847760000000  0.4819370000000 1.0
C      1  0.4542700000000  0.5152190000000  0.5176810000000 1.0
C      1  0.5453540000000  0.4847760000000  0.5176810000000 1.0
C      1  0.4819390000000  0.4544550000000  0.4845870000000 1.0
C      1  0.4819400000000  0.5455390000000  0.5150300000000 1.0
C      1  0.5176840000000  0.4544550000000  0.5150300000000 1.0
C      1  0.4829340000000  0.5553960000000  0.4308970000000 1.0
C      1  0.4309000000000  0.4831200000000  0.5552070000000 1.0
C      1  0.5552100000000  0.4310860000000  0.4829320000000 1.0
C      1  0.5166890000000  0.4445990000000  0.4308970000000 1.0
C      1  0.5166890000000  0.5553960000000  0.5687210000000 1.0
C      1  0.4829340000000  0.4445990000000  0.5687210000000 1.0
C      1  0.5687230000000  0.5168750000000  0.5552080000000 1.0
C      1  0.5687230000000  0.4831200000000  0.4444110000000 1.0
C      1  0.4309000000000  0.5168750000000  0.4444100000000 1.0
C      1  0.4444130000000  0.5689090000000  0.4829310000000 1.0
C      1  0.4444130000000  0.4310860000000  0.5166860000000 1.0
C      1  0.5552100000000  0.5689090000000  0.5166870000000 1.0
C      1  0.4829340000000  0.5553960000000  0.5687210000000 1.0
C      1  0.4309000000000  0.4831200000000  0.4444100000000 1.0
C      1  0.5552100000000  0.4310860000000  0.5166870000000 1.0
C      1  0.5166890000000  0.4445990000000  0.5687210000000 1.0
C      1  0.5166890000000  0.5553960000000  0.4308970000000 1.0
C      1  0.4829340000000  0.4445990000000  0.4308970000000 1.0
C      1  0.5687230000000  0.5168750000000  0.4444110000000 1.0
C      1  0.5687230000000  0.4831200000000  0.5552080000000 1.0
C      1  0.4309000000000  0.5168750000000  0.5552070000000 1.0
C      1  0.4444130000000  0.5689090000000  0.5166860000000 1.0
C      1  0.4444130000000  0.4310860000000  0.4829310000000 1.0
C      1  0.5552100000000  0.5689090000000  0.4829320000000 1.0
C      1  0.4622760000000  0.5238260000000  0.5605940000000 1.0
C      1  0.5605970000000  0.4624610000000  0.5236380000000 1.0
C      1  0.5236400000000  0.5607830000000  0.4622730000000 1.0
C      1  0.5373470000000  0.4761680000000  0.5605950000000 1.0
C      1  0.5373470000000  0.5238260000000  0.4390240000000 1.0
C      1  0.4622760000000  0.4761680000000  0.4390230000000 1.0
C      1  0.4390260000000  0.5375330000000  0.5236380000000 1.0
C      1  0.4390260000000  0.4624610000000  0.4759800000000 1.0
C      1  0.5605970000000  0.5375330000000  0.4759800000000 1.0
C      1  0.4759820000000  0.4392120000000  0.4622730000000 1.0
C      1  0.4759830000000  0.5607830000000  0.5373450000000 1.0
C      1  0.5236410000000  0.4392120000000  0.5373450000000 1.0
C      1  0.4622750000000  0.5238260000000  0.4390230000000 1.0
C      1  0.5605970000000  0.4624620000000  0.4759800000000 1.0
C      1  0.5236410000000  0.5607830000000  0.5373450000000 1.0
C      1  0.5373470000000  0.4761680000000  0.4390240000000 1.0
C      1  0.5373470000000  0.5238260000000  0.5605950000000 1.0
C      1  0.4622760000000  0.4761680000000  0.5605940000000 1.0
C      1  0.4390260000000  0.5375330000000  0.4759800000000 1.0
C      1  0.4390260000000  0.4624620000000  0.5236380000000 1.0
C      1  0.5605970000000  0.5375340000000  0.5236380000000 1.0
C      1  0.4759830000000  0.4392120000000  0.5373450000000 1.0
C      1  0.4759820000000  0.5607830000000  0.4622730000000 1.0
C      1  0.5236400000000  0.4392120000000  0.4622730000000 1.0
C      1  0.5504240000000  0.5353300000000  0.5129980000000 1.0
C      1  0.5130000000000  0.5506100000000  0.5351410000000 1.0
C      1  0.5351440000000  0.5131860000000  0.5504210000000 1.0
C      1  0.4491990000000  0.4646650000000  0.5129970000000 1.0
C      1  0.4491990000000  0.5353300000000  0.4866200000000 1.0
C      1  0.5504240000000  0.4646650000000  0.4866200000000 1.0
C      1  0.4866230000000  0.4493850000000  0.5351410000000 1.0
C      1  0.4866230000000  0.5506100000000  0.4644760000000 1.0
C      1  0.5130000000000  0.4493850000000  0.4644770000000 1.0
C      1  0.4644790000000  0.4868090000000  0.5504210000000 1.0
C      1  0.4644790000000  0.5131860000000  0.4491970000000 1.0
C      1  0.5351440000000  0.4868090000000  0.4491970000000 1.0
C      1  0.5504240000000  0.5353300000000  0.4866200000000 1.0
C      1  0.5130000000000  0.5506100000000  0.4644770000000 1.0
C      1  0.5351440000000  0.5131860000000  0.4491970000000 1.0
C      1  0.4491990000000  0.4646650000000  0.4866200000000 1.0
C      1  0.4491990000000  0.5353300000000  0.5129970000000 1.0
C      1  0.5504240000000  0.4646650000000  0.5129980000000 1.0
C      1  0.4866230000000  0.4493850000000  0.4644770000000 1.0
C      1  0.4866230000000  0.5506100000000  0.5351410000000 1.0
C      1  0.5130000000000  0.4493850000000  0.5351410000000 1.0
C      1  0.4644790000000  0.4868090000000  0.4491970000000 1.0
C      1  0.4644790000000  0.5131860000000  0.5504210000000 1.0
C      1  0.5351440000000  0.4868090000000  0.5504210000000 1.0
C      1  0.4779160000000  0.4920960000000  0.4460680000000 1.0
C      1  0.4460710000000  0.4781020000000  0.4919070000000 1.0
C      1  0.4919100000000  0.4462570000000  0.4779140000000 1.0
C      1  0.5217060000000  0.5078990000000  0.4460680000000 1.0
C      1  0.5217070000000  0.4920960000000  0.5535500000000 1.0
C      1  0.4779170000000  0.5078990000000  0.5535490000000 1.0
C      1  0.5535520000000  0.5218920000000  0.4919070000000 1.0
C      1  0.5535520000000  0.4781030000000  0.5077110000000 1.0
C      1  0.4460710000000  0.5218920000000  0.5077100000000 1.0
C      1  0.5077130000000  0.5537380000000  0.4779140000000 1.0
C      1  0.5077130000000  0.4462570000000  0.5217040000000 1.0
C      1  0.4919100000000  0.5537380000000  0.5217040000000 1.0
C      1  0.4779170000000  0.4920960000000  0.5535490000000 1.0
C      1  0.4460710000000  0.4781030000000  0.5077100000000 1.0
C      1  0.4919100000000  0.4462570000000  0.5217040000000 1.0
C      1  0.5217070000000  0.5078990000000  0.5535500000000 1.0
C      1  0.5217060000000  0.4920960000000  0.4460680000000 1.0
C      1  0.4779160000000  0.5078990000000  0.4460680000000 1.0
C      1  0.5535520000000  0.5218920000000  0.5077110000000 1.0
C      1  0.5535520000000  0.4781030000000  0.4919080000000 1.0
C      1  0.4460710000000  0.5218920000000  0.4919070000000 1.0
C      1  0.5077130000000  0.5537380000000  0.5217040000000 1.0
C      1  0.5077130000000  0.4462570000000  0.4779140000000 1.0
C      1  0.4919100000000  0.5537380000000  0.4779140000000 1.0
C      1  0.5818640000000  0.5284260000000  0.5215740000000 1.0
C      1  0.5215770000000  0.5820500000000  0.5282370000000 1.0
C      1  0.5282400000000  0.5217630000000  0.5818620000000 1.0
C      1  0.4177590000000  0.4715690000000  0.5215740000000 1.0
C      1  0.4177590000000  0.5284260000000  0.4780440000000 1.0
C      1  0.5818640000000  0.4715690000000  0.4780440000000 1.0
C      1  0.4780460000000  0.4179450000000  0.5282370000000 1.0
C      1  0.4780460000000  0.5820500000000  0.4713800000000 1.0
C      1  0.5215770000000  0.4179450000000  0.4713810000000 1.0
C      1  0.4713830000000  0.4782320000000  0.5818620000000 1.0
C      1  0.4713830000000  0.5217630000000  0.4177560000000 1.0
C      1  0.5282400000000  0.4782320000000  0.4177560000000 1.0
C      1  0.5818640000000  0.5284260000000  0.4780440000000 1.0
C      1  0.5215770000000  0.5820500000000  0.4713810000000 1.0
C      1  0.5282400000000  0.5217630000000  0.4177560000000 1.0
C      1  0.4177590000000  0.4715690000000  0.4780440000000 1.0
C      1  0.4177590000000  0.5284260000000  0.5215740000000 1.0
C      1  0.5818640000000  0.4715690000000  0.5215740000000 1.0
C      1  0.4780460000000  0.4179450000000  0.4713810000000 1.0
C      1  0.4780460000000  0.5820500000000  0.5282370000000 1.0
C      1  0.5215770000000  0.4179450000000  0.5282370000000 1.0
C      1  0.4713830000000  0.4782320000000  0.4177560000000 1.0
C      1  0.4713830000000  0.5217630000000  0.5818620000000 1.0
C      1  0.5282400000000  0.4782320000000  0.5818620000000 1.0
C      1  0.5411600000000  0.4555780000000  0.4926470000000 1.0
C      1  0.4926490000000  0.5413460000000  0.4553890000000 1.0
C      1  0.4553920000000  0.4928350000000  0.5411570000000 1.0
C      1  0.4584630000000  0.5444170000000  0.4926470000000 1.0
C      1  0.4584630000000  0.4555780000000  0.5069710000000 1.0
C      1  0.5411600000000  0.5444170000000  0.5069710000000 1.0
C      1  0.5069740000000  0.4586490000000  0.4553890000000 1.0
C      1  0.5069740000000  0.5413460000000  0.5442290000000 1.0
C      1  0.4926490000000  0.4586490000000  0.5442290000000 1.0
C      1  0.5442310000000  0.5071600000000  0.5411580000000 1.0
C      1  0.5442310000000  0.4928350000000  0.4584610000000 1.0
C      1  0.4553920000000  0.5071600000000  0.4584600000000 1.0
C      1  0.5411600000000  0.4555780000000  0.5069710000000 1.0
C      1  0.4926490000000  0.5413460000000  0.5442280000000 1.0
C      1  0.4553920000000  0.4928350000000  0.4584600000000 1.0
C      1  0.4584630000000  0.5444170000000  0.5069710000000 1.0
C      1  0.4584630000000  0.4555780000000  0.4926470000000 1.0
C      1  0.5411600000000  0.5444170000000  0.4926470000000 1.0
C      1  0.5069740000000  0.4586490000000  0.5442290000000 1.0
C      1  0.5069740000000  0.5413460000000  0.4553890000000 1.0
C      1  0.4926490000000  0.4586490000000  0.4553890000000 1.0
C      1  0.5442310000000  0.5071600000000  0.4584610000000 1.0
C      1  0.5442310000000  0.4928350000000  0.5411580000000 1.0
C      1  0.4553920000000  0.5071600000000  0.5411570000000 1.0
C      1  0.4409140000000  0.4734550000000  0.4664220000000 1.0
C      1  0.4664240000000  0.4410990000000  0.4732670000000 1.0
C      1  0.4732690000000  0.4666100000000  0.4409110000000 1.0
C      1  0.5587090000000  0.5265400000000  0.4664220000000 1.0
C      1  0.5587090000000  0.4734550000000  0.5331960000000 1.0
C      1  0.4409140000000  0.5265390000000  0.5331960000000 1.0
C      1  0.5331990000000  0.5588950000000  0.4732670000000 1.0
C      1  0.5331990000000  0.4410990000000  0.5263510000000 1.0
C      1  0.4664240000000  0.5588950000000  0.5263510000000 1.0
C      1  0.5263540000000  0.5333850000000  0.4409110000000 1.0
C      1  0.5263540000000  0.4666100000000  0.5587070000000 1.0
C      1  0.4732690000000  0.5333850000000  0.5587070000000 1.0
C      1  0.4409140000000  0.4734550000000  0.5331960000000 1.0
C      1  0.4664240000000  0.4410990000000  0.5263510000000 1.0
C      1  0.4732690000000  0.4666100000000  0.5587070000000 1.0
C      1  0.5587090000000  0.5265400000000  0.5331960000000 1.0
C      1  0.5587090000000  0.4734550000000  0.4664220000000 1.0
C      1  0.4409140000000  0.5265400000000  0.4664210000000 1.0
C      1  0.5331990000000  0.5588950000000  0.5263510000000 1.0
C      1  0.5331990000000  0.4411000000000  0.4732670000000 1.0
C      1  0.4664240000000  0.5588960000000  0.4732670000000 1.0
C      1  0.5263540000000  0.5333850000000  0.5587070000000 1.0
C      1  0.5263540000000  0.4666100000000  0.4409110000000 1.0
C      1  0.4732690000000  0.5333850000000  0.4409110000000 1.0
C      1  0.5852820000000  0.5145130000000  0.5405240000000 1.0
C      1  0.5405270000000  0.5854680000000  0.5143250000000 1.0
C      1  0.5143270000000  0.5407130000000  0.5852790000000 1.0
C      1  0.4143410000000  0.4854820000000  0.5405240000000 1.0
C      1  0.4143410000000  0.5145130000000  0.4590940000000 1.0
C      1  0.5852820000000  0.4854820000000  0.4590940000000 1.0
C      1  0.4590960000000  0.4145270000000  0.5143240000000 1.0
C      1  0.4590960000000  0.5854680000000  0.4852930000000 1.0
C      1  0.5405270000000  0.4145270000000  0.4852940000000 1.0
C      1  0.4852960000000  0.4592820000000  0.5852790000000 1.0
C      1  0.4852960000000  0.5407130000000  0.4143390000000 1.0
C      1  0.5143270000000  0.4592820000000  0.4143390000000 1.0
C      1  0.5852820000000  0.5145130000000  0.4590940000000 1.0
C      1  0.5405270000000  0.5854680000000  0.4852940000000 1.0
C      1  0.5143270000000  0.5407130000000  0.4143390000000 1.0
C      1  0.4143410000000  0.4854820000000  0.4590940000000 1.0
C      1  0.4143410000000  0.5145130000000  0.5405240000000 1.0
C      1  0.5852820000000  0.4854820000000  0.5405240000000 1.0
C      1  0.4590960000000  0.4145270000000  0.4852930000000 1.0
C      1  0.4590960000000  0.5854680000000  0.5143240000000 1.0
C      1  0.5405270000000  0.4145270000000  0.5143250000000 1.0
C      1  0.4852960000000  0.4592820000000  0.4143390000000 1.0
C      1  0.4852960000000  0.5407130000000  0.5852790000000 1.0
C      1  0.5143270000000  0.4592820000000  0.5852790000000 1.0
C      1  0.4540700000000  0.5668070000000  0.5282280000000 1.0
C      1  0.5282310000000  0.4542560000000  0.5666190000000 1.0
C      1  0.5666210000000  0.5284170000000  0.4540670000000 1.0
C      1  0.5455530000000  0.4331870000000  0.5282290000000 1.0
C      1  0.5455530000000  0.5668070000000  0.4713890000000 1.0
C      1  0.4540700000000  0.4331870000000  0.4713890000000 1.0
C      1  0.4713920000000  0.5457390000000  0.5666190000000 1.0
C      1  0.4713920000000  0.4542560000000  0.4329990000000 1.0
C      1  0.5282310000000  0.5457390000000  0.4329990000000 1.0
C      1  0.4330010000000  0.4715780000000  0.4540670000000 1.0
C      1  0.4330020000000  0.5284170000000  0.5455510000000 1.0
C      1  0.5666220000000  0.4715780000000  0.5455510000000 1.0
C      1  0.4540700000000  0.5668080000000  0.4713890000000 1.0
C      1  0.5282310000000  0.4542560000000  0.4329990000000 1.0
C      1  0.5666220000000  0.5284170000000  0.5455510000000 1.0
C      1  0.5455530000000  0.4331870000000  0.4713890000000 1.0
C      1  0.5455530000000  0.5668080000000  0.5282290000000 1.0
C      1  0.4540700000000  0.4331870000000  0.5282280000000 1.0
C      1  0.4713920000000  0.5457390000000  0.4329990000000 1.0
C      1  0.4713920000000  0.4542560000000  0.5666190000000 1.0
C      1  0.5282310000000  0.5457390000000  0.5666190000000 1.0
C      1  0.4330020000000  0.4715780000000  0.5455510000000 1.0
C      1  0.4330010000000  0.5284170000000  0.4540670000000 1.0
C      1  0.5666210000000  0.4715780000000  0.4540670000000 1.0
C      1  0.5153250000000  0.4931590000000  0.5677400000000 1.0
C      1  0.5677420000000  0.5155110000000  0.4929710000000 1.0
C      1  0.4929730000000  0.5679290000000  0.5153220000000 1.0
C      1  0.4842980000000  0.5068360000000  0.5677400000000 1.0
C      1  0.4842980000000  0.4931590000000  0.4318780000000 1.0
C      1  0.5153250000000  0.5068360000000  0.4318780000000 1.0
C      1  0.4318800000000  0.4844840000000  0.4929710000000 1.0
C      1  0.4318810000000  0.5155110000000  0.5066470000000 1.0
C      1  0.5677430000000  0.4844840000000  0.5066470000000 1.0
C      1  0.5066500000000  0.4320660000000  0.5153230000000 1.0
C      1  0.5066490000000  0.5679290000000  0.4842950000000 1.0
C      1  0.4929730000000  0.4320660000000  0.4842950000000 1.0
C      1  0.5153250000000  0.4931590000000  0.4318780000000 1.0
C      1  0.5677430000000  0.5155110000000  0.5066470000000 1.0
C      1  0.4929730000000  0.5679290000000  0.4842950000000 1.0
C      1  0.4842980000000  0.5068360000000  0.4318780000000 1.0
C      1  0.4842980000000  0.4931590000000  0.5677400000000 1.0
C      1  0.5153250000000  0.5068360000000  0.5677400000000 1.0
C      1  0.4318810000000  0.4844840000000  0.5066470000000 1.0
C      1  0.4318800000000  0.5155110000000  0.4929710000000 1.0
C      1  0.5677420000000  0.4844840000000  0.4929710000000 1.0
C      1  0.5066490000000  0.4320660000000  0.4842950000000 1.0
C      1  0.5066500000000  0.5679290000000  0.5153230000000 1.0
C      1  0.4929730000000  0.4320660000000  0.5153230000000 1.0
C      1  0.4923630000000  0.5731090000000  0.5503810000000 1.0
C      1  0.5503840000000  0.4925490000000  0.5729210000000 1.0
C      1  0.5729230000000  0.5505700000000  0.4923600000000 1.0
C      1  0.5072600000000  0.4268850000000  0.5503820000000 1.0
C      1  0.5072600000000  0.5731090000000  0.4492360000000 1.0
C      1  0.4923620000000  0.4268850000000  0.4492360000000 1.0
C      1  0.4492390000000  0.5074460000000  0.5729210000000 1.0
C      1  0.4492390000000  0.4925490000000  0.4266970000000 1.0
C      1  0.5503840000000  0.5074460000000  0.4266970000000 1.0
C      1  0.4267000000000  0.4494250000000  0.4923600000000 1.0
C      1  0.4267000000000  0.5505700000000  0.5072580000000 1.0
C      1  0.5729230000000  0.4494250000000  0.5072580000000 1.0
C      1  0.4923620000000  0.5731100000000  0.4492360000000 1.0
C      1  0.5503840000000  0.4925490000000  0.4266970000000 1.0
C      1  0.5729230000000  0.5505700000000  0.5072580000000 1.0
C      1  0.5072600000000  0.4268850000000  0.4492360000000 1.0
C      1  0.5072600000000  0.5731090000000  0.5503810000000 1.0
C      1  0.4923630000000  0.4268850000000  0.5503810000000 1.0
C      1  0.4492390000000  0.5074460000000  0.4266970000000 1.0
C      1  0.4492390000000  0.4925490000000  0.5729210000000 1.0
C      1  0.5503840000000  0.5074460000000  0.5729210000000 1.0
C      1  0.4267000000000  0.4494250000000  0.5072580000000 1.0
C      1  0.4267000000000  0.5505700000000  0.4923600000000 1.0
C      1  0.5729230000000  0.4494250000000  0.4923600000000 1.0
C      1  0.5360950000000  0.5807330000000  0.4734530000000 1.0
C      1  0.4734550000000  0.5362810000000  0.5805440000000 1.0
C      1  0.5805470000000  0.4736410000000  0.5360930000000 1.0
C      1  0.4635270000000  0.4192620000000  0.4734520000000 1.0
C      1  0.4635280000000  0.5807330000000  0.5261650000000 1.0
C      1  0.5360950000000  0.4192620000000  0.5261650000000 1.0
C      1  0.5261680000000  0.4637140000000  0.5805440000000 1.0
C      1  0.5261680000000  0.5362810000000  0.4190740000000 1.0
C      1  0.4734550000000  0.4637140000000  0.4190730000000 1.0
C      1  0.4190760000000  0.5263540000000  0.5360930000000 1.0
C      1  0.4190760000000  0.4736410000000  0.4635250000000 1.0
C      1  0.5805470000000  0.5263540000000  0.4635250000000 1.0
C      1  0.5360950000000  0.5807330000000  0.5261650000000 1.0
C      1  0.4734550000000  0.5362810000000  0.4190730000000 1.0
C      1  0.5805470000000  0.4736410000000  0.4635250000000 1.0
C      1  0.4635280000000  0.4192620000000  0.5261650000000 1.0
C      1  0.4635270000000  0.5807330000000  0.4734520000000 1.0
C      1  0.5360950000000  0.4192620000000  0.4734530000000 1.0
C      1  0.5261680000000  0.4637140000000  0.4190740000000 1.0
C      1  0.5261680000000  0.5362810000000  0.5805440000000 1.0
C      1  0.4734550000000  0.4637140000000  0.5805440000000 1.0
C      1  0.4190760000000  0.5263540000000  0.4635250000000 1.0
C      1  0.4190760000000  0.4736410000000  0.5360930000000 1.0
C      1  0.5805470000000  0.5263540000000  0.5360930000000 1.0
C      1  0.4494890000000  0.5782270000000  0.4925290000000 1.0
C      1  0.4925320000000  0.4496750000000  0.5780380000000 1.0
C      1  0.5780400000000  0.4927180000000  0.4494870000000 1.0
C      1  0.5501340000000  0.4217680000000  0.4925300000000 1.0
C      1  0.5501340000000  0.5782270000000  0.5070890000000 1.0
C      1  0.4494890000000  0.4217680000000  0.5070880000000 1.0
C      1  0.5070910000000  0.5503200000000  0.5780380000000 1.0
C      1  0.5070910000000  0.4496750000000  0.4215800000000 1.0
C      1  0.4925320000000  0.5503200000000  0.4215800000000 1.0
C      1  0.4215820000000  0.5072770000000  0.4494860000000 1.0
C      1  0.4215830000000  0.4927180000000  0.5501310000000 1.0
C      1  0.5780410000000  0.5072770000000  0.5501310000000 1.0
C      1  0.4494890000000  0.5782270000000  0.5070880000000 1.0
C      1  0.4925320000000  0.4496750000000  0.4215800000000 1.0
C      1  0.5780410000000  0.4927180000000  0.5501320000000 1.0
C      1  0.5501340000000  0.4217680000000  0.5070890000000 1.0
C      1  0.5501340000000  0.5782270000000  0.4925300000000 1.0
C      1  0.4494890000000  0.4217680000000  0.4925290000000 1.0
C      1  0.5070910000000  0.5503200000000  0.4215800000000 1.0
C      1  0.5070910000000  0.4496750000000  0.5780380000000 1.0
C      1  0.4925320000000  0.5503200000000  0.5780380000000 1.0
C      1  0.4215830000000  0.5072770000000  0.5501310000000 1.0
C      1  0.4215820000000  0.4927180000000  0.4494860000000 1.0
C      1  0.5780400000000  0.5072770000000  0.4494870000000 1.0
C      1  0.4687620000000  0.5504460000000  0.5155480000000 1.0
C      1  0.5155510000000  0.4689470000000  0.5502570000000 1.0
C      1  0.5502600000000  0.5157370000000  0.4687590000000 1.0
C      1  0.5308620000000  0.4495490000000  0.5155480000000 1.0
C      1  0.5308610000000  0.5504460000000  0.4840700000000 1.0
C      1  0.4687610000000  0.4495490000000  0.4840700000000 1.0
C      1  0.4840720000000  0.5310480000000  0.5502570000000 1.0
C      1  0.4840720000000  0.4689470000000  0.4493600000000 1.0
C      1  0.5155510000000  0.5310480000000  0.4493610000000 1.0
C      1  0.4493630000000  0.4842580000000  0.4687590000000 1.0
C      1  0.4493630000000  0.5157370000000  0.5308590000000 1.0
C      1  0.5502600000000  0.4842580000000  0.5308590000000 1.0
C      1  0.4687610000000  0.5504460000000  0.4840690000000 1.0
C      1  0.5155510000000  0.4689470000000  0.4493610000000 1.0
C      1  0.5502600000000  0.5157370000000  0.5308590000000 1.0
C      1  0.5308610000000  0.4495490000000  0.4840700000000 1.0
C      1  0.5308620000000  0.5504460000000  0.5155480000000 1.0
C      1  0.4687620000000  0.4495490000000  0.5155480000000 1.0
C      1  0.4840720000000  0.5310480000000  0.4493600000000 1.0
C      1  0.4840720000000  0.4689470000000  0.5502570000000 1.0
C      1  0.5155510000000  0.5310480000000  0.5502570000000 1.0
C      1  0.4493630000000  0.4842580000000  0.5308590000000 1.0
C      1  0.4493630000000  0.5157370000000  0.4687590000000 1.0
C      1  0.5502600000000  0.4842580000000  0.4687590000000 1.0
C      1  0.5165170000000  0.4345630000000  0.4407320000000 1.0
C      1  0.4407340000000  0.5167030000000  0.4343740000000 1.0
C      1  0.4343770000000  0.4409200000000  0.5165150000000 1.0
C      1  0.4831060000000  0.5654320000000  0.4407320000000 1.0
C      1  0.4831060000000  0.4345630000000  0.5588860000000 1.0
C      1  0.5165170000000  0.5654320000000  0.5588860000000 1.0
C      1  0.5588890000000  0.4832920000000  0.4343740000000 1.0
C      1  0.5588890000000  0.5167030000000  0.5652440000000 1.0
C      1  0.4407340000000  0.4832920000000  0.5652430000000 1.0
C      1  0.5652460000000  0.5590750000000  0.5165150000000 1.0
C      1  0.5652460000000  0.4409200000000  0.4831030000000 1.0
C      1  0.4343770000000  0.5590750000000  0.4831030000000 1.0
C      1  0.5165170000000  0.4345630000000  0.5588860000000 1.0
C      1  0.4407340000000  0.5167030000000  0.5652430000000 1.0
C      1  0.4343770000000  0.4409200000000  0.4831030000000 1.0
C      1  0.4831060000000  0.5654320000000  0.5588860000000 1.0
C      1  0.4831060000000  0.4345630000000  0.4407320000000 1.0
C      1  0.5165170000000  0.5654320000000  0.4407320000000 1.0
C      1  0.5588890000000  0.4832920000000  0.5652440000000 1.0
C      1  0.5588890000000  0.5167030000000  0.4343740000000 1.0
C      1  0.4407340000000  0.4832920000000  0.4343740000000 1.0
C      1  0.5652460000000  0.5590750000000  0.4831030000000 1.0
C      1  0.5652460000000  0.4409200000000  0.5165150000000 1.0
C      1  0.4343770000000  0.5590750000000  0.5165150000000 1.0
C      1  0.4798530000000  0.5078610000000  0.5131510000000 1.0
C      1  0.5131540000000  0.4800390000000  0.5076730000000 1.0
C      1  0.5076750000000  0.5133400000000  0.4798500000000 1.0
C      1  0.5197700000000  0.4921340000000  0.5131510000000 1.0
C      1  0.5197700000000  0.5078620000000  0.4864660000000 1.0
C      1  0.4798530000000  0.4921340000000  0.4864660000000 1.0
C      1  0.4864690000000  0.5199560000000  0.5076730000000 1.0
C      1  0.4864690000000  0.4800390000000  0.4919450000000 1.0
C      1  0.5131540000000  0.5199560000000  0.4919450000000 1.0
C      1  0.4919470000000  0.4866550000000  0.4798500000000 1.0
C      1  0.4919480000000  0.5133400000000  0.5197680000000 1.0
C      1  0.5076760000000  0.4866550000000  0.5197680000000 1.0
C      1  0.4798530000000  0.5078610000000  0.4864660000000 1.0
C      1  0.5131540000000  0.4800390000000  0.4919450000000 1.0
C      1  0.5076760000000  0.5133400000000  0.5197680000000 1.0
C      1  0.5197700000000  0.4921340000000  0.4864670000000 1.0
C      1  0.5197700000000  0.5078610000000  0.5131510000000 1.0
C      1  0.4798530000000  0.4921330000000  0.5131510000000 1.0
C      1  0.4864690000000  0.5199560000000  0.4919450000000 1.0
C      1  0.4864690000000  0.4800390000000  0.5076730000000 1.0
C      1  0.5131540000000  0.5199560000000  0.5076730000000 1.0
C      1  0.4919480000000  0.4866550000000  0.5197680000000 1.0
C      1  0.4919470000000  0.5133400000000  0.4798500000000 1.0
C      1  0.5076750000000  0.4866550000000  0.4798500000000 1.0
C      1  0.5069780000000  0.4925050000000  0.4103940000000 1.0
C      1  0.4103970000000  0.5071640000000  0.4923170000000 1.0
C      1  0.4923190000000  0.4105830000000  0.5069750000000 1.0
C      1  0.4926450000000  0.5074900000000  0.4103940000000 1.0
C      1  0.4926450000000  0.4925050000000  0.5892240000000 1.0
C      1  0.5069780000000  0.5074900000000  0.5892240000000 1.0
C      1  0.5892260000000  0.4928310000000  0.4923170000000 1.0
C      1  0.5892260000000  0.5071640000000  0.5073020000000 1.0
C      1  0.4103970000000  0.4928310000000  0.5073020000000 1.0
C      1  0.5073040000000  0.5894120000000  0.5069750000000 1.0
C      1  0.5073040000000  0.4105830000000  0.4926430000000 1.0
C      1  0.4923190000000  0.5894120000000  0.4926430000000 1.0
C      1  0.5069780000000  0.4925050000000  0.5892240000000 1.0
C      1  0.4103970000000  0.5071640000000  0.5073020000000 1.0
C      1  0.4923190000000  0.4105830000000  0.4926430000000 1.0
C      1  0.4926450000000  0.5074900000000  0.5892240000000 1.0
C      1  0.4926450000000  0.4925050000000  0.4103940000000 1.0
C      1  0.5069780000000  0.5074900000000  0.4103940000000 1.0
C      1  0.5892260000000  0.4928310000000  0.5073020000000 1.0
C      1  0.5892260000000  0.5071640000000  0.4923170000000 1.0
C      1  0.4103970000000  0.4928310000000  0.4923170000000 1.0
C      1  0.5073040000000  0.5894120000000  0.4926430000000 1.0
C      1  0.5073040000000  0.4105830000000  0.5069750000000 1.0
C      1  0.4923190000000  0.5894120000000  0.5069750000000 1.0
C      1  0.4253790000000  0.5389560000000  0.5161500000000 1.0
C      1  0.5161530000000  0.4255650000000  0.5387670000000 1.0
C      1  0.5387700000000  0.5163390000000  0.4253770000000 1.0
C      1  0.5742440000000  0.4610390000000  0.5161510000000 1.0
C      1  0.5742440000000  0.5389560000000  0.4834680000000 1.0
C      1  0.4253790000000  0.4610390000000  0.4834670000000 1.0
C      1  0.4834700000000  0.5744300000000  0.5387670000000 1.0
C      1  0.4834700000000  0.4255650000000  0.4608510000000 1.0
C      1  0.5161530000000  0.5744300000000  0.4608510000000 1.0
C      1  0.4608530000000  0.4836560000000  0.4253760000000 1.0
C      1  0.4608540000000  0.5163390000000  0.5742410000000 1.0
C      1  0.5387700000000  0.4836560000000  0.5742420000000 1.0
C      1  0.4253790000000  0.5389560000000  0.4834670000000 1.0
C      1  0.5161530000000  0.4255650000000  0.4608510000000 1.0
C      1  0.5387700000000  0.5163390000000  0.5742420000000 1.0
C      1  0.5742440000000  0.4610390000000  0.4834680000000 1.0
C      1  0.5742440000000  0.5389560000000  0.5161510000000 1.0
C      1  0.4253790000000  0.4610390000000  0.5161500000000 1.0
C      1  0.4834700000000  0.5744300000000  0.4608510000000 1.0
C      1  0.4834700000000  0.4255650000000  0.5387670000000 1.0
C      1  0.5161530000000  0.5744300000000  0.5387670000000 1.0
C      1  0.4608540000000  0.4836560000000  0.5742410000000 1.0
C      1  0.4608530000000  0.5163390000000  0.4253760000000 1.0
C      1  0.5387700000000  0.4836560000000  0.4253770000000 1.0
C      1  0.5375520000000  0.5532300000000  0.5569460000000 1.0
C      1  0.5569490000000  0.5377380000000  0.5530410000000 1.0
C      1  0.5530440000000  0.5571350000000  0.5375500000000 1.0
C      1  0.4620710000000  0.4467650000000  0.5569460000000 1.0
C      1  0.4620710000000  0.5532300000000  0.4426710000000 1.0
C      1  0.5375520000000  0.4467650000000  0.4426720000000 1.0
C      1  0.4426740000000  0.4622570000000  0.5530410000000 1.0
C      1  0.4426740000000  0.5377380000000  0.4465760000000 1.0
C      1  0.5569490000000  0.4622570000000  0.4465770000000 1.0
C      1  0.4465790000000  0.4428600000000  0.5375500000000 1.0
C      1  0.4465790000000  0.5571350000000  0.4620680000000 1.0
C      1  0.5530440000000  0.4428600000000  0.4620680000000 1.0
C      1  0.5375520000000  0.5532300000000  0.4426720000000 1.0
C      1  0.5569490000000  0.5377380000000  0.4465770000000 1.0
C      1  0.5530440000000  0.5571350000000  0.4620680000000 1.0
C      1  0.4620710000000  0.4467650000000  0.4426710000000 1.0
C      1  0.4620710000000  0.5532300000000  0.5569460000000 1.0
C      1  0.5375520000000  0.4467650000000  0.5569460000000 1.0
C      1  0.4426740000000  0.4622570000000  0.4465770000000 1.0
C      1  0.4426740000000  0.5377380000000  0.5530410000000 1.0
C      1  0.5569490000000  0.4622570000000  0.5530410000000 1.0
C      1  0.4465790000000  0.4428600000000  0.4620680000000 1.0
C      1  0.4465790000000  0.5571350000000  0.5375490000000 1.0
C      1  0.5530440000000  0.4428600000000  0.5375500000000 1.0
C      1  0.4712130000000  0.5624310000000  0.4483630000000 1.0
C      1  0.4483660000000  0.4714000000000  0.5622420000000 1.0
C      1  0.5622450000000  0.4485520000000  0.4712110000000 1.0
C      1  0.5284090000000  0.4375640000000  0.4483640000000 1.0
C      1  0.5284100000000  0.5624310000000  0.5512540000000 1.0
C      1  0.4712140000000  0.4375640000000  0.5512540000000 1.0
C      1  0.5512570000000  0.5285950000000  0.5622430000000 1.0
C      1  0.5512570000000  0.4714000000000  0.4373760000000 1.0
C      1  0.4483660000000  0.5285950000000  0.4373750000000 1.0
C      1  0.4373780000000  0.5514430000000  0.4712110000000 1.0
C      1  0.4373780000000  0.4485520000000  0.5284070000000 1.0
C      1  0.5622450000000  0.5514430000000  0.5284070000000 1.0
C      1  0.4712140000000  0.5624310000000  0.5512540000000 1.0
C      1  0.4483660000000  0.4713990000000  0.4373750000000 1.0
C      1  0.5622450000000  0.4485520000000  0.5284070000000 1.0
C      1  0.5284090000000  0.4375640000000  0.5512540000000 1.0
C      1  0.5284090000000  0.5624310000000  0.4483640000000 1.0
C      1  0.4712130000000  0.4375640000000  0.4483630000000 1.0
C      1  0.5512570000000  0.5285950000000  0.4373760000000 1.0
C      1  0.5512570000000  0.4713990000000  0.5622430000000 1.0
C      1  0.4483660000000  0.5285950000000  0.5622420000000 1.0
C      1  0.4373780000000  0.5514430000000  0.5284070000000 1.0
C      1  0.4373780000000  0.4485520000000  0.4712110000000 1.0
C      1  0.5622450000000  0.5514430000000  0.4712110000000 1.0
C      1  0.5068380000000  0.4849980000000  0.4652880000000 1.0
C      1  0.4652900000000  0.5070240000000  0.4848090000000 1.0
C      1  0.4848120000000  0.4654770000000  0.5068350000000 1.0
C      1  0.4927850000000  0.5149970000000  0.4652880000000 1.0
C      1  0.4927850000000  0.4849980000000  0.5343300000000 1.0
C      1  0.5068380000000  0.5149970000000  0.5343300000000 1.0
C      1  0.5343320000000  0.4929710000000  0.4848100000000 1.0
C      1  0.5343320000000  0.5070240000000  0.5148090000000 1.0
C      1  0.4652910000000  0.4929710000000  0.5148080000000 1.0
C      1  0.5148110000000  0.5345180000000  0.5068350000000 1.0
C      1  0.5148110000000  0.4654770000000  0.4927830000000 1.0
C      1  0.4848120000000  0.5345180000000  0.4927820000000 1.0
C      1  0.5068380000000  0.4849980000000  0.5343300000000 1.0
C      1  0.4652910000000  0.5070240000000  0.5148080000000 1.0
C      1  0.4848120000000  0.4654770000000  0.4927820000000 1.0
C      1  0.4927850000000  0.5149970000000  0.5343300000000 1.0
C      1  0.4927850000000  0.4849980000000  0.4652880000000 1.0
C      1  0.5068380000000  0.5149970000000  0.4652880000000 1.0
C      1  0.5343320000000  0.4929710000000  0.5148090000000 1.0
C      1  0.5343320000000  0.5070240000000  0.4848100000000 1.0
C      1  0.4652900000000  0.4929710000000  0.4848090000000 1.0
C      1  0.5148110000000  0.5345180000000  0.4927820000000 1.0
C      1  0.5148110000000  0.4654770000000  0.5068350000000 1.0
C      1  0.4848120000000  0.5345180000000  0.5068350000000 1.0
C      1  0.4192650000000  0.5163860000000  0.4860610000000 1.0
C      1  0.4860630000000  0.4194510000000  0.5161980000000 1.0
C      1  0.5162000000000  0.4862490000000  0.4192620000000 1.0
C      1  0.5803580000000  0.4836090000000  0.4860610000000 1.0
C      1  0.5803580000000  0.5163860000000  0.5135570000000 1.0
C      1  0.4192650000000  0.4836090000000  0.5135570000000 1.0
C      1  0.5135600000000  0.5805440000000  0.5161980000000 1.0
C      1  0.5135590000000  0.4194510000000  0.4834200000000 1.0
C      1  0.4860630000000  0.5805440000000  0.4834200000000 1.0
C      1  0.4834230000000  0.5137460000000  0.4192620000000 1.0
C      1  0.4834230000000  0.4862490000000  0.5803550000000 1.0
C      1  0.5162000000000  0.5137460000000  0.5803560000000 1.0
C      1  0.4192650000000  0.5163860000000  0.5135570000000 1.0
C      1  0.4860630000000  0.4194510000000  0.4834200000000 1.0
C      1  0.5162000000000  0.4862490000000  0.5803550000000 1.0
C      1  0.5803580000000  0.4836090000000  0.5135570000000 1.0
C      1  0.5803580000000  0.5163860000000  0.4860610000000 1.0
C      1  0.4192650000000  0.4836090000000  0.4860610000000 1.0
C      1  0.5135590000000  0.5805440000000  0.4834200000000 1.0
C      1  0.5135600000000  0.4194510000000  0.5161980000000 1.0
C      1  0.4860630000000  0.5805440000000  0.5161980000000 1.0
C      1  0.4834230000000  0.5137460000000  0.5803550000000 1.0
C      1  0.4834230000000  0.4862490000000  0.4192620000000 1.0
C      1  0.5162000000000  0.5137460000000  0.4192620000000 1.0
C      1  0.4501640000000  0.4503500000000  0.5494560000000 1.0
C      1  0.5494590000000  0.4503500000000  0.4501620000000 1.0
C      1  0.4501640000000  0.5496450000000  0.4501610000000 1.0
C      1  0.5494590000000  0.5496450000000  0.5494570000000 1.0
C      1  0.5494590000000  0.4503500000000  0.5494570000000 1.0
C      1  0.4501640000000  0.5496450000000  0.5494560000000 1.0
C      1  0.5494590000000  0.5496450000000  0.4501620000000 1.0
C      1  0.4501640000000  0.4503500000000  0.4501610000000 1.0
END
