TITL C-1892074-1603-1 -3.29890137128979e-08 1000000 -1369.49592691845 0 0 200 (C1) n - 1
REM
REM in /nfs/bkarasulu/CARBON/AIRSS/Generating-Clusters/GAP-ML-2020/Higher-Symm/Selected-Sizes/TryA-Only_Ih-Symm/Larger-Clusters
REM
REM
REM
REM
REM
REM ./C.cell (2cf5181f0f1d4d5b12b972d32ad12063)
REM
REM compiler GCC version 9.2.1 20190827 (Red Hat 9.2.1-1)
REM options -cpp -mtune=generic -march=x86-64 -g -O0 -fpre-include=/usr/include/finclude/math-vector-fortran.h
REM seed 612478051 330738440 2082671102 -468688266 1618526460 -799918196 468982754 989689270 -1496409640 1310107822 -952349157 1317755709 -384893441 -808189709 1377982399 358498627 -1049035487 1733872548 -424181326 1859906356 -1553502605 -1603354977 -765537123 -1939706339 1027836201 211660364 -835798148 -1067662755 1841826539 1403511227 242017336 970657453 1114478373
REM
CELL 1.54180  100.00000  100.00000  100.00000   90.00000   90.00000   90.00000
LATT -1
SFAC C  
C      1  0.5156810000000  0.5790440000000  0.4934340000000 1.0
C      1  0.4939270000000  0.5123550000000  0.5817030000000 1.0
C      1  0.5809600000000  0.4950550000000  0.5153230000000 1.0
C      1  0.4854450000000  0.4195620000000  0.4922380000000 1.0
C      1  0.4867220000000  0.5781070000000  0.5066920000000 1.0
C      1  0.5126910000000  0.4162680000000  0.5070980000000 1.0
C      1  0.5067990000000  0.4835650000000  0.5785710000000 1.0
C      1  0.5058400000000  0.5117040000000  0.4178480000000 1.0
C      1  0.4911080000000  0.4836670000000  0.4221980000000 1.0
C      1  0.4225250000000  0.5035310000000  0.5104040000000 1.0
C      1  0.4232200000000  0.4933950000000  0.4839490000000 1.0
C      1  0.5816480000000  0.5081970000000  0.4862930000000 1.0
C      1  0.5141120000000  0.5786580000000  0.5057980000000 1.0
C      1  0.4934790000000  0.5110170000000  0.4197860000000 1.0
C      1  0.5789600000000  0.4960430000000  0.4876420000000 1.0
C      1  0.4859830000000  0.4211960000000  0.5046370000000 1.0
C      1  0.4883280000000  0.5759890000000  0.4945010000000 1.0
C      1  0.5127050000000  0.4193880000000  0.4949400000000 1.0
C      1  0.5033910000000  0.4850240000000  0.4239990000000 1.0
C      1  0.5061190000000  0.5107990000000  0.5794100000000 1.0
C      1  0.4944890000000  0.4853330000000  0.5773630000000 1.0
C      1  0.4226950000000  0.5058520000000  0.4835490000000 1.0
C      1  0.4179340000000  0.4918860000000  0.5111310000000 1.0
C      1  0.5803900000000  0.5073780000000  0.5134180000000 1.0
C      1  0.5079960000000  0.5503110000000  0.5624820000000 1.0
C      1  0.5600230000000  0.4955720000000  0.5500030000000 1.0
C      1  0.5495670000000  0.5583930000000  0.4996670000000 1.0
C      1  0.5057870000000  0.4549940000000  0.5484010000000 1.0
C      1  0.5045700000000  0.5423230000000  0.4499840000000 1.0
C      1  0.5103920000000  0.4472360000000  0.4376220000000 1.0
C      1  0.4462820000000  0.5052490000000  0.5458830000000 1.0
C      1  0.4448350000000  0.4917320000000  0.4473550000000 1.0
C      1  0.5534970000000  0.5029880000000  0.4519220000000 1.0
C      1  0.4471940000000  0.4353620000000  0.5085330000000 1.0
C      1  0.4554550000000  0.5513810000000  0.5068740000000 1.0
C      1  0.5473990000000  0.4458800000000  0.5057440000000 1.0
C      1  0.5044530000000  0.5494850000000  0.4395940000000 1.0
C      1  0.5639880000000  0.5005170000000  0.4453280000000 1.0
C      1  0.5427600000000  0.5484660000000  0.5029080000000 1.0
C      1  0.5092280000000  0.4535620000000  0.4484410000000 1.0
C      1  0.5069330000000  0.5442250000000  0.5514730000000 1.0
C      1  0.5054660000000  0.4489920000000  0.5594920000000 1.0
C      1  0.4504300000000  0.4999780000000  0.4548060000000 1.0
C      1  0.4348860000000  0.5038270000000  0.5509410000000 1.0
C      1  0.5507020000000  0.5011420000000  0.5436770000000 1.0
C      1  0.4534180000000  0.4462640000000  0.5076100000000 1.0
C      1  0.4503970000000  0.5628400000000  0.5090820000000 1.0
C      1  0.5538370000000  0.4351300000000  0.5049230000000 1.0
C      1  0.4377710000000  0.5249740000000  0.4846670000000 1.0
C      1  0.4867770000000  0.4402280000000  0.5199890000000 1.0
C      1  0.5203430000000  0.4874800000000  0.4413980000000 1.0
C      1  0.5607210000000  0.4791470000000  0.4896200000000 1.0
C      1  0.5635960000000  0.5247490000000  0.5141060000000 1.0
C      1  0.4384910000000  0.4781440000000  0.5117540000000 1.0
C      1  0.5151730000000  0.5610860000000  0.5222590000000 1.0
C      1  0.5131590000000  0.4392320000000  0.4802270000000 1.0
C      1  0.4895280000000  0.5573880000000  0.4789780000000 1.0
C      1  0.4765040000000  0.5137330000000  0.4374200000000 1.0
C      1  0.4778970000000  0.4880800000000  0.5591670000000 1.0
C      1  0.5231250000000  0.5118460000000  0.5617840000000 1.0
C      1  0.4410140000000  0.5186380000000  0.5127960000000 1.0
C      1  0.4883600000000  0.4380870000000  0.4759220000000 1.0
C      1  0.5236740000000  0.4851740000000  0.5603060000000 1.0
C      1  0.5631050000000  0.4775660000000  0.5141130000000 1.0
C      1  0.5629510000000  0.5241540000000  0.4861530000000 1.0
C      1  0.4398710000000  0.4754720000000  0.4861570000000 1.0
C      1  0.5162540000000  0.5603770000000  0.4769960000000 1.0
C      1  0.5141800000000  0.4371490000000  0.5189860000000 1.0
C      1  0.4880940000000  0.5607320000000  0.5242420000000 1.0
C      1  0.4773020000000  0.5137240000000  0.5632220000000 1.0
C      1  0.4744580000000  0.4871480000000  0.4400630000000 1.0
C      1  0.5226200000000  0.5124750000000  0.4366520000000 1.0
C      1  0.5427400000000  0.5057860000000  0.4601630000000 1.0
C      1  0.4622740000000  0.5395130000000  0.5058240000000 1.0
C      1  0.5074760000000  0.4626230000000  0.5369790000000 1.0
C      1  0.4645190000000  0.4949220000000  0.4719720000000 1.0
C      1  0.4577950000000  0.5072560000000  0.5387770000000 1.0
C      1  0.5330840000000  0.4933580000000  0.5304500000000 1.0
C      1  0.5397160000000  0.4569990000000  0.5069960000000 1.0
C      1  0.5307760000000  0.5304300000000  0.4938560000000 1.0
C      1  0.4672780000000  0.4603820000000  0.4952230000000 1.0
C      1  0.4952980000000  0.5306760000000  0.5336230000000 1.0
C      1  0.4959120000000  0.4672290000000  0.4617040000000 1.0
C      1  0.5068300000000  0.5346940000000  0.4612740000000 1.0
C      1  0.5398230000000  0.5046610000000  0.5363220000000 1.0
C      1  0.4657780000000  0.5326720000000  0.4939030000000 1.0
C      1  0.5081800000000  0.4617570000000  0.4594650000000 1.0
C      1  0.4627450000000  0.4964190000000  0.5316590000000 1.0
C      1  0.4589880000000  0.5053660000000  0.4638250000000 1.0
C      1  0.5374530000000  0.4954300000000  0.4673090000000 1.0
C      1  0.5332970000000  0.4617390000000  0.4959100000000 1.0
C      1  0.5361630000000  0.5370430000000  0.5055660000000 1.0
C      1  0.4613260000000  0.4574660000000  0.5071620000000 1.0
C      1  0.4970850000000  0.5272870000000  0.4693220000000 1.0
C      1  0.4977680000000  0.4704890000000  0.5293460000000 1.0
C      1  0.5072180000000  0.5366820000000  0.5398710000000 1.0
C      1  0.5081340000000  0.5714610000000  0.5162790000000 1.0
C      1  0.5163630000000  0.5049360000000  0.5718030000000 1.0
C      1  0.5736420000000  0.5179660000000  0.5071360000000 1.0
C      1  0.4922910000000  0.4281500000000  0.5150600000000 1.0
C      1  0.4952320000000  0.5688720000000  0.4845980000000 1.0
C      1  0.5073820000000  0.4273530000000  0.4846590000000 1.0
C      1  0.4843870000000  0.4925320000000  0.5708230000000 1.0
C      1  0.4828030000000  0.5060950000000  0.4274050000000 1.0
C      1  0.5140800000000  0.4919180000000  0.4296030000000 1.0
C      1  0.4274150000000  0.4827480000000  0.5049920000000 1.0
C      1  0.4292610000000  0.5159750000000  0.4910520000000 1.0
C      1  0.5721460000000  0.4858860000000  0.4943730000000 1.0
C      1  0.5094550000000  0.5703170000000  0.4840200000000 1.0
C      1  0.5152280000000  0.5057970000000  0.4269070000000 1.0
C      1  0.5735970000000  0.5180880000000  0.4928340000000 1.0
C      1  0.4932250000000  0.4269870000000  0.4828640000000 1.0
C      1  0.4938680000000  0.5710050000000  0.5168280000000 1.0
C      1  0.5064580000000  0.4264240000000  0.5154880000000 1.0
C      1  0.4815360000000  0.4918980000000  0.4287390000000 1.0
C      1  0.4841070000000  0.5065920000000  0.5730070000000 1.0
C      1  0.5166720000000  0.4906780000000  0.5710470000000 1.0
C      1  0.4287850000000  0.4826160000000  0.4908480000000 1.0
C      1  0.4300950000000  0.5139580000000  0.5053400000000 1.0
C      1  0.5732470000000  0.4853070000000  0.5085640000000 1.0
C      1  0.5202420000000  0.5214990000000  0.4953630000000 1.0
C      1  0.4966450000000  0.5200120000000  0.5245710000000 1.0
C      1  0.5232570000000  0.4955320000000  0.5207980000000 1.0
C      1  0.4785100000000  0.4902660000000  0.4918010000000 1.0
C      1  0.4751300000000  0.5204500000000  0.5104130000000 1.0
C      1  0.5135220000000  0.4868700000000  0.5141080000000 1.0
C      1  0.5010140000000  0.4807800000000  0.5197780000000 1.0
C      1  0.5003780000000  0.5164250000000  0.4781930000000 1.0
C      1  0.4911180000000  0.4941140000000  0.4852250000000 1.0
C      1  0.4857950000000  0.5142490000000  0.5169020000000 1.0
C      1  0.4687390000000  0.4982170000000  0.4850090000000 1.0
C      1  0.5128260000000  0.5135430000000  0.4854860000000 1.0
C      1  0.5174230000000  0.5182060000000  0.5086590000000 1.0
C      1  0.4893730000000  0.5077660000000  0.4821070000000 1.0
C      1  0.5139150000000  0.4997560000000  0.4901410000000 1.0
C      1  0.4801430000000  0.4910710000000  0.5058220000000 1.0
C      1  0.4727250000000  0.5207470000000  0.4967230000000 1.0
C      1  0.5118550000000  0.4909700000000  0.5005680000000 1.0
C      1  0.5038840000000  0.4899110000000  0.4893380000000 1.0
C      1  0.5092560000000  0.5169650000000  0.5195010000000 1.0
C      1  0.4898530000000  0.4881440000000  0.5154560000000 1.0
C      1  0.4760750000000  0.5108250000000  0.4871050000000 1.0
C      1  0.4870180000000  0.5011070000000  0.5124550000000 1.0
C      1  0.5203360000000  0.5088470000000  0.5182110000000 1.0
C      1  0.5207950000000  0.5505850000000  0.5255160000000 1.0
C      1  0.5276010000000  0.5171580000000  0.5516400000000 1.0
C      1  0.5529680000000  0.5285360000000  0.5189280000000 1.0
C      1  0.4839260000000  0.4516290000000  0.5236390000000 1.0
C      1  0.4848670000000  0.5464420000000  0.4758610000000 1.0
C      1  0.5174530000000  0.4505310000000  0.4780660000000 1.0
C      1  0.4736180000000  0.4849520000000  0.5481710000000 1.0
C      1  0.4717920000000  0.5174180000000  0.4481060000000 1.0
C      1  0.5242910000000  0.4841240000000  0.4523940000000 1.0
C      1  0.4492630000000  0.4753590000000  0.5170370000000 1.0
C      1  0.4474900000000  0.5311730000000  0.4799550000000 1.0
C      1  0.5497670000000  0.4751700000000  0.4860740000000 1.0
C      1  0.5210970000000  0.5496130000000  0.4732900000000 1.0
C      1  0.5268910000000  0.5175720000000  0.4470020000000 1.0
C      1  0.5515510000000  0.5275620000000  0.4829230000000 1.0
C      1  0.4850170000000  0.4491010000000  0.4719050000000 1.0
C      1  0.4835840000000  0.5501700000000  0.5287760000000 1.0
C      1  0.5191400000000  0.4477870000000  0.5225390000000 1.0
C      1  0.4712190000000  0.4840030000000  0.4513830000000 1.0
C      1  0.4732120000000  0.5182520000000  0.5525860000000 1.0
C      1  0.5278420000000  0.4810420000000  0.5494520000000 1.0
C      1  0.4507860000000  0.4709930000000  0.4829530000000 1.0
C      1  0.4514820000000  0.5227230000000  0.5173550000000 1.0
C      1  0.5523350000000  0.4735820000000  0.5185490000000 1.0
C      1  0.4641210000000  0.4661140000000  0.4832000000000 1.0
C      1  0.4842710000000  0.4627250000000  0.4677480000000 1.0
C      1  0.4688440000000  0.4826140000000  0.4651370000000 1.0
C      1  0.5382200000000  0.5302630000000  0.4813060000000 1.0
C      1  0.5407280000000  0.4661510000000  0.5187240000000 1.0
C      1  0.4645830000000  0.5288800000000  0.5173980000000 1.0
C      1  0.5202260000000  0.5370750000000  0.4671280000000 1.0
C      1  0.5200630000000  0.4596670000000  0.5294890000000 1.0
C      1  0.4821640000000  0.5371770000000  0.5333430000000 1.0
C      1  0.5338880000000  0.5185890000000  0.4589030000000 1.0
C      1  0.5322800000000  0.4801220000000  0.5365190000000 1.0
C      1  0.4664780000000  0.5196640000000  0.5405460000000 1.0
C      1  0.4612290000000  0.4684990000000  0.5180450000000 1.0
C      1  0.4838660000000  0.4650100000000  0.5277810000000 1.0
C      1  0.4684850000000  0.4842880000000  0.5349980000000 1.0
C      1  0.5396130000000  0.5318880000000  0.5192980000000 1.0
C      1  0.5367940000000  0.4694030000000  0.4850960000000 1.0
C      1  0.4610330000000  0.5335150000000  0.4802580000000 1.0
C      1  0.5203990000000  0.5384370000000  0.5323960000000 1.0
C      1  0.5185480000000  0.4624450000000  0.4708850000000 1.0
C      1  0.4833850000000  0.5334540000000  0.4708510000000 1.0
C      1  0.5336030000000  0.5182630000000  0.5393200000000 1.0
C      1  0.5305700000000  0.4837500000000  0.4651160000000 1.0
C      1  0.4660670000000  0.5179850000000  0.4607650000000 1.0
C      1  0.5310250000000  0.5281240000000  0.4688260000000 1.0
C      1  0.4697930000000  0.5299120000000  0.5316050000000 1.0
C      1  0.5310030000000  0.4682160000000  0.5284220000000 1.0
C      1  0.4700350000000  0.5283380000000  0.4701820000000 1.0
C      1  0.5281270000000  0.4722720000000  0.4738010000000 1.0
C      1  0.4712080000000  0.4720710000000  0.5270090000000 1.0
C      1  0.4725820000000  0.4703410000000  0.4718630000000 1.0
C      1  0.5315670000000  0.5297810000000  0.5310210000000 1.0
END
