TITL C-1892074-1603-44 2.55939502280278e-06 1000000 -2179.74747721701 0 0 320 (Th) n - 1
REM
REM in /nfs/bkarasulu/CARBON/AIRSS/Generating-Clusters/GAP-ML-2020/Higher-Symm/Selected-Sizes/TryA-Only_Ih-Symm/Larger-Clusters
REM
REM
REM
REM
REM
REM ./C.cell (2cf5181f0f1d4d5b12b972d32ad12063)
REM
REM compiler GCC version 9.2.1 20190827 (Red Hat 9.2.1-1)
REM options -cpp -mtune=generic -march=x86-64 -g -O0 -fpre-include=/usr/include/finclude/math-vector-fortran.h
REM seed -859705947 -2062650475 436663864 1030050963 -1021744372 -844357335 -893742798 1702932045 -1787052502 -576918914 1778445928 -549172278 -1142267173 1208292131 1152381715 1911615838 653659838 1842769979 139292485 614897376 1800604041 1776530880 -60254773 -1445700533 -853652463 -1380981153 256922332 1582820629 -1840882027 -778767888 -381245138 1058378196 -1585181427
REM
CELL 1.54180  100.00000  100.00000  100.00000   90.00000   90.00000   90.00000
LATT -1
SFAC C  
C      1  0.5072660000000  0.4181470000000  0.5161590000000 1.0
C      1  0.4183380000000  0.5164570000000  0.5067780000000 1.0
C      1  0.5166480000000  0.5070760000000  0.4178500000000 1.0
C      1  0.4933290000000  0.4181470000000  0.4834590000000 1.0
C      1  0.4933290000000  0.5820660000000  0.5161600000000 1.0
C      1  0.5072660000000  0.5820670000000  0.4834590000000 1.0
C      1  0.5822570000000  0.5164570000000  0.4928400000000 1.0
C      1  0.5822570000000  0.4837570000000  0.5067780000000 1.0
C      1  0.4183380000000  0.4837570000000  0.4928400000000 1.0
C      1  0.4839470000000  0.5070760000000  0.5817690000000 1.0
C      1  0.4839470000000  0.4931380000000  0.4178500000000 1.0
C      1  0.5166480000000  0.4931380000000  0.5817690000000 1.0
C      1  0.5072660000000  0.5820670000000  0.5161590000000 1.0
C      1  0.4183380000000  0.4837570000000  0.5067780000000 1.0
C      1  0.5166480000000  0.4931380000000  0.4178500000000 1.0
C      1  0.4933290000000  0.5820660000000  0.4834590000000 1.0
C      1  0.4933290000000  0.4181470000000  0.5161600000000 1.0
C      1  0.5072660000000  0.4181470000000  0.4834590000000 1.0
C      1  0.5822570000000  0.4837570000000  0.4928400000000 1.0
C      1  0.5822570000000  0.5164570000000  0.5067780000000 1.0
C      1  0.4183380000000  0.5164570000000  0.4928400000000 1.0
C      1  0.4839470000000  0.4931380000000  0.5817690000000 1.0
C      1  0.4839470000000  0.5070760000000  0.4178500000000 1.0
C      1  0.5166480000000  0.5070760000000  0.5817690000000 1.0
C      1  0.4554330000000  0.5562960000000  0.5073240000000 1.0
C      1  0.5564870000000  0.5076220000000  0.4549440000000 1.0
C      1  0.5078130000000  0.4552420000000  0.5559980000000 1.0
C      1  0.5451620000000  0.5562960000000  0.4922940000000 1.0
C      1  0.5451620000000  0.4439180000000  0.5073240000000 1.0
C      1  0.4554330000000  0.4439180000000  0.4922940000000 1.0
C      1  0.4441090000000  0.5076220000000  0.5446740000000 1.0
C      1  0.4441090000000  0.4925920000000  0.4549440000000 1.0
C      1  0.5564870000000  0.4925920000000  0.5446740000000 1.0
C      1  0.4927830000000  0.4552420000000  0.4436200000000 1.0
C      1  0.4927830000000  0.5449720000000  0.5559980000000 1.0
C      1  0.5078130000000  0.5449720000000  0.4436200000000 1.0
C      1  0.4554330000000  0.4439180000000  0.5073240000000 1.0
C      1  0.5564870000000  0.4925920000000  0.4549440000000 1.0
C      1  0.5078130000000  0.5449720000000  0.5559980000000 1.0
C      1  0.5451620000000  0.4439180000000  0.4922940000000 1.0
C      1  0.5451620000000  0.5562960000000  0.5073240000000 1.0
C      1  0.4554330000000  0.5562960000000  0.4922940000000 1.0
C      1  0.4441090000000  0.4925920000000  0.5446740000000 1.0
C      1  0.4441090000000  0.5076220000000  0.4549440000000 1.0
C      1  0.5564870000000  0.5076220000000  0.5446740000000 1.0
C      1  0.4927830000000  0.5449720000000  0.4436200000000 1.0
C      1  0.4927830000000  0.4552420000000  0.5559980000000 1.0
C      1  0.5078130000000  0.4552420000000  0.4436200000000 1.0
C      1  0.4823110000000  0.4184310000000  0.5072730000000 1.0
C      1  0.4186220000000  0.5075700000000  0.4818230000000 1.0
C      1  0.5077610000000  0.4821210000000  0.4181340000000 1.0
C      1  0.5182840000000  0.4184310000000  0.4923460000000 1.0
C      1  0.5182840000000  0.5817820000000  0.5072730000000 1.0
C      1  0.4823110000000  0.5817820000000  0.4923460000000 1.0
C      1  0.5819730000000  0.5075700000000  0.5177960000000 1.0
C      1  0.5819730000000  0.4926440000000  0.4818230000000 1.0
C      1  0.4186220000000  0.4926440000000  0.5177950000000 1.0
C      1  0.4928340000000  0.4821210000000  0.5814850000000 1.0
C      1  0.4928340000000  0.5180930000000  0.4181340000000 1.0
C      1  0.5077610000000  0.5180930000000  0.5814850000000 1.0
C      1  0.4823110000000  0.5817820000000  0.5072730000000 1.0
C      1  0.4186220000000  0.4926440000000  0.4818230000000 1.0
C      1  0.5077610000000  0.5180930000000  0.4181340000000 1.0
C      1  0.5182840000000  0.5817820000000  0.4923460000000 1.0
C      1  0.5182840000000  0.4184310000000  0.5072730000000 1.0
C      1  0.4823110000000  0.4184320000000  0.4923460000000 1.0
C      1  0.5819730000000  0.4926440000000  0.5177950000000 1.0
C      1  0.5819730000000  0.5075700000000  0.4818230000000 1.0
C      1  0.4186220000000  0.5075700000000  0.5177950000000 1.0
C      1  0.4928340000000  0.5180930000000  0.5814850000000 1.0
C      1  0.4928340000000  0.4821210000000  0.4181340000000 1.0
C      1  0.5077610000000  0.4821210000000  0.5814850000000 1.0
C      1  0.4936660000000  0.5737700000000  0.5303440000000 1.0
C      1  0.5739610000000  0.5306410000000  0.4931780000000 1.0
C      1  0.5308320000000  0.4934760000000  0.5734720000000 1.0
C      1  0.5069290000000  0.5737700000000  0.4692750000000 1.0
C      1  0.5069290000000  0.4264440000000  0.5303440000000 1.0
C      1  0.4936660000000  0.4264440000000  0.4692750000000 1.0
C      1  0.4266350000000  0.5306410000000  0.5064410000000 1.0
C      1  0.4266350000000  0.4695730000000  0.4931780000000 1.0
C      1  0.5739610000000  0.4695730000000  0.5064410000000 1.0
C      1  0.4697630000000  0.4934760000000  0.4261460000000 1.0
C      1  0.4697630000000  0.5067380000000  0.5734720000000 1.0
C      1  0.5308320000000  0.5067380000000  0.4261460000000 1.0
C      1  0.4936660000000  0.4264440000000  0.5303440000000 1.0
C      1  0.5739610000000  0.4695730000000  0.4931780000000 1.0
C      1  0.5308320000000  0.5067380000000  0.5734720000000 1.0
C      1  0.5069290000000  0.4264440000000  0.4692750000000 1.0
C      1  0.5069290000000  0.5737700000000  0.5303440000000 1.0
C      1  0.4936660000000  0.5737700000000  0.4692750000000 1.0
C      1  0.4266350000000  0.4695730000000  0.5064410000000 1.0
C      1  0.4266350000000  0.5306410000000  0.4931780000000 1.0
C      1  0.5739610000000  0.5306410000000  0.5064410000000 1.0
C      1  0.4697630000000  0.5067380000000  0.4261460000000 1.0
C      1  0.4697630000000  0.4934760000000  0.5734720000000 1.0
C      1  0.5308320000000  0.4934760000000  0.4261460000000 1.0
C      1  0.5473730000000  0.5179820000000  0.4581690000000 1.0
C      1  0.5181730000000  0.4584660000000  0.5468850000000 1.0
C      1  0.4586570000000  0.5471820000000  0.5176840000000 1.0
C      1  0.4532220000000  0.5179820000000  0.5414500000000 1.0
C      1  0.4532220000000  0.4822320000000  0.4581690000000 1.0
C      1  0.5473730000000  0.4822320000000  0.5414500000000 1.0
C      1  0.4824230000000  0.4584660000000  0.4527340000000 1.0
C      1  0.4824230000000  0.5417480000000  0.5468850000000 1.0
C      1  0.5181730000000  0.5417480000000  0.4527340000000 1.0
C      1  0.5419380000000  0.5471820000000  0.4819340000000 1.0
C      1  0.5419380000000  0.4530310000000  0.5176840000000 1.0
C      1  0.4586570000000  0.4530310000000  0.4819340000000 1.0
C      1  0.5473730000000  0.4822320000000  0.4581690000000 1.0
C      1  0.5181730000000  0.5417480000000  0.5468850000000 1.0
C      1  0.4586570000000  0.4530310000000  0.5176840000000 1.0
C      1  0.4532220000000  0.4822320000000  0.5414500000000 1.0
C      1  0.4532220000000  0.5179820000000  0.4581690000000 1.0
C      1  0.5473730000000  0.5179820000000  0.5414500000000 1.0
C      1  0.4824230000000  0.5417480000000  0.4527340000000 1.0
C      1  0.4824230000000  0.4584660000000  0.5468850000000 1.0
C      1  0.5181730000000  0.4584660000000  0.4527340000000 1.0
C      1  0.5419380000000  0.4530320000000  0.4819340000000 1.0
C      1  0.5419380000000  0.5471820000000  0.5176840000000 1.0
C      1  0.4586570000000  0.5471820000000  0.4819340000000 1.0
C      1  0.5390590000000  0.5683090000000  0.4875150000000 1.0
C      1  0.5684990000000  0.4878130000000  0.5385710000000 1.0
C      1  0.4880040000000  0.5388680000000  0.5680110000000 1.0
C      1  0.4615360000000  0.5683090000000  0.5121030000000 1.0
C      1  0.4615360000000  0.4319050000000  0.4875150000000 1.0
C      1  0.5390590000000  0.4319050000000  0.5121030000000 1.0
C      1  0.4320960000000  0.4878130000000  0.4610480000000 1.0
C      1  0.4320960000000  0.5124010000000  0.5385710000000 1.0
C      1  0.5684990000000  0.5124010000000  0.4610480000000 1.0
C      1  0.5125910000000  0.5388680000000  0.4316080000000 1.0
C      1  0.5125920000000  0.4613460000000  0.5680110000000 1.0
C      1  0.4880040000000  0.4613460000000  0.4316080000000 1.0
C      1  0.5390590000000  0.4319050000000  0.4875150000000 1.0
C      1  0.5684990000000  0.5124010000000  0.5385710000000 1.0
C      1  0.4880040000000  0.4613460000000  0.5680110000000 1.0
C      1  0.4615360000000  0.4319050000000  0.5121030000000 1.0
C      1  0.4615360000000  0.5683090000000  0.4875150000000 1.0
C      1  0.5390590000000  0.5683090000000  0.5121030000000 1.0
C      1  0.4320960000000  0.5124010000000  0.4610480000000 1.0
C      1  0.4320960000000  0.4878130000000  0.5385710000000 1.0
C      1  0.5685000000000  0.4878130000000  0.4610480000000 1.0
C      1  0.5125910000000  0.4613460000000  0.4316080000000 1.0
C      1  0.5125910000000  0.5388680000000  0.5680110000000 1.0
C      1  0.4880040000000  0.5388680000000  0.4316080000000 1.0
C      1  0.5175790000000  0.4542310000000  0.4857000000000 1.0
C      1  0.4544220000000  0.4859970000000  0.5170900000000 1.0
C      1  0.4861880000000  0.5173880000000  0.4539330000000 1.0
C      1  0.4830160000000  0.4542310000000  0.5139190000000 1.0
C      1  0.4830160000000  0.5459830000000  0.4857000000000 1.0
C      1  0.5175790000000  0.5459830000000  0.5139190000000 1.0
C      1  0.5461740000000  0.4859970000000  0.4825280000000 1.0
C      1  0.5461740000000  0.5142170000000  0.5170910000000 1.0
C      1  0.4544220000000  0.5142170000000  0.4825280000000 1.0
C      1  0.5144070000000  0.5173880000000  0.5456850000000 1.0
C      1  0.5144070000000  0.4828260000000  0.4539330000000 1.0
C      1  0.4861880000000  0.4828260000000  0.5456850000000 1.0
C      1  0.5175790000000  0.5459830000000  0.4857000000000 1.0
C      1  0.4544220000000  0.5142170000000  0.5170900000000 1.0
C      1  0.4861880000000  0.4828260000000  0.4539330000000 1.0
C      1  0.4830160000000  0.5459830000000  0.5139190000000 1.0
C      1  0.4830160000000  0.4542310000000  0.4857000000000 1.0
C      1  0.5175790000000  0.4542310000000  0.5139190000000 1.0
C      1  0.5461740000000  0.5142170000000  0.4825280000000 1.0
C      1  0.5461740000000  0.4859970000000  0.5170910000000 1.0
C      1  0.4544220000000  0.4859970000000  0.4825280000000 1.0
C      1  0.5144070000000  0.4828260000000  0.5456850000000 1.0
C      1  0.5144070000000  0.5173880000000  0.4539330000000 1.0
C      1  0.4861880000000  0.5173880000000  0.5456850000000 1.0
C      1  0.4238470000000  0.4866490000000  0.5294610000000 1.0
C      1  0.4868390000000  0.5297580000000  0.4233590000000 1.0
C      1  0.5299490000000  0.4236560000000  0.4863510000000 1.0
C      1  0.5767480000000  0.4866490000000  0.4701580000000 1.0
C      1  0.5767480000000  0.5135650000000  0.5294610000000 1.0
C      1  0.4238470000000  0.5135650000000  0.4701580000000 1.0
C      1  0.5137560000000  0.5297580000000  0.5762600000000 1.0
C      1  0.5137560000000  0.4704560000000  0.4233590000000 1.0
C      1  0.4868390000000  0.4704560000000  0.5762600000000 1.0
C      1  0.4706460000000  0.4236560000000  0.5132680000000 1.0
C      1  0.4706460000000  0.5765580000000  0.4863510000000 1.0
C      1  0.5299490000000  0.5765570000000  0.5132680000000 1.0
C      1  0.4238470000000  0.5135650000000  0.5294610000000 1.0
C      1  0.4868390000000  0.4704560000000  0.4233590000000 1.0
C      1  0.5299490000000  0.5765570000000  0.4863510000000 1.0
C      1  0.5767480000000  0.5135650000000  0.4701580000000 1.0
C      1  0.5767480000000  0.4866490000000  0.5294610000000 1.0
C      1  0.4238470000000  0.4866490000000  0.4701580000000 1.0
C      1  0.5137560000000  0.4704560000000  0.5762600000000 1.0
C      1  0.5137560000000  0.5297580000000  0.4233590000000 1.0
C      1  0.4868390000000  0.5297580000000  0.5762600000000 1.0
C      1  0.4706460000000  0.5765580000000  0.5132680000000 1.0
C      1  0.4706460000000  0.4236560000000  0.4863510000000 1.0
C      1  0.5299490000000  0.4236560000000  0.5132680000000 1.0
C      1  0.5501700000000  0.4766630000000  0.5269930000000 1.0
C      1  0.4768540000000  0.5272900000000  0.5496820000000 1.0
C      1  0.5274810000000  0.5499790000000  0.4763650000000 1.0
C      1  0.4504250000000  0.4766630000000  0.4726260000000 1.0
C      1  0.4504250000000  0.5235510000000  0.5269930000000 1.0
C      1  0.5501700000000  0.5235510000000  0.4726260000000 1.0
C      1  0.5237420000000  0.5272900000000  0.4499370000000 1.0
C      1  0.5237420000000  0.4729240000000  0.5496820000000 1.0
C      1  0.4768540000000  0.4729240000000  0.4499370000000 1.0
C      1  0.4731140000000  0.5499790000000  0.5232530000000 1.0
C      1  0.4731140000000  0.4502350000000  0.4763650000000 1.0
C      1  0.5274810000000  0.4502350000000  0.5232530000000 1.0
C      1  0.5501700000000  0.5235510000000  0.5269930000000 1.0
C      1  0.4768540000000  0.4729240000000  0.5496820000000 1.0
C      1  0.5274810000000  0.4502350000000  0.4763650000000 1.0
C      1  0.4504250000000  0.5235510000000  0.4726260000000 1.0
C      1  0.4504250000000  0.4766630000000  0.5269930000000 1.0
C      1  0.5501700000000  0.4766630000000  0.4726260000000 1.0
C      1  0.5237420000000  0.4729240000000  0.4499370000000 1.0
C      1  0.5237420000000  0.5272900000000  0.5496820000000 1.0
C      1  0.4768540000000  0.5272900000000  0.4499370000000 1.0
C      1  0.4731140000000  0.4502350000000  0.5232530000000 1.0
C      1  0.4731140000000  0.5499790000000  0.4763650000000 1.0
C      1  0.5274810000000  0.5499790000000  0.5232530000000 1.0
C      1  0.4474630000000  0.4924780000000  0.4926400000000 1.0
C      1  0.4926690000000  0.4929370000000  0.4469750000000 1.0
C      1  0.4931280000000  0.4472720000000  0.4921810000000 1.0
C      1  0.5531320000000  0.4924780000000  0.5069790000000 1.0
C      1  0.5531320000000  0.5077350000000  0.4926400000000 1.0
C      1  0.4474630000000  0.5077350000000  0.5069790000000 1.0
C      1  0.5079260000000  0.4929370000000  0.5526440000000 1.0
C      1  0.5079260000000  0.5072760000000  0.4469750000000 1.0
C      1  0.4926690000000  0.5072760000000  0.5526440000000 1.0
C      1  0.5074670000000  0.4472720000000  0.5074380000000 1.0
C      1  0.5074670000000  0.5529420000000  0.4921810000000 1.0
C      1  0.4931280000000  0.5529420000000  0.5074380000000 1.0
C      1  0.4474630000000  0.5077350000000  0.4926400000000 1.0
C      1  0.4926690000000  0.5072760000000  0.4469750000000 1.0
C      1  0.4931280000000  0.5529420000000  0.4921810000000 1.0
C      1  0.5531320000000  0.5077350000000  0.5069790000000 1.0
C      1  0.5531320000000  0.4924780000000  0.4926400000000 1.0
C      1  0.4474630000000  0.4924780000000  0.5069790000000 1.0
C      1  0.5079260000000  0.5072760000000  0.5526440000000 1.0
C      1  0.5079260000000  0.4929370000000  0.4469750000000 1.0
C      1  0.4926690000000  0.4929370000000  0.5526440000000 1.0
C      1  0.5074670000000  0.5529420000000  0.5074380000000 1.0
C      1  0.5074670000000  0.4472720000000  0.4921810000000 1.0
C      1  0.4931280000000  0.4472720000000  0.5074380000000 1.0
C      1  0.5467910000000  0.5375100000000  0.5268130000000 1.0
C      1  0.5377010000000  0.5271110000000  0.5463020000000 1.0
C      1  0.5273020000000  0.5466000000000  0.5372120000000 1.0
C      1  0.4538050000000  0.5375100000000  0.4728050000000 1.0
C      1  0.4538050000000  0.4627040000000  0.5268130000000 1.0
C      1  0.5467910000000  0.4627040000000  0.4728050000000 1.0
C      1  0.4628950000000  0.5271110000000  0.4533160000000 1.0
C      1  0.4628950000000  0.4731030000000  0.5463020000000 1.0
C      1  0.5377010000000  0.4731030000000  0.4533160000000 1.0
C      1  0.4732940000000  0.5466000000000  0.4624060000000 1.0
C      1  0.4732940000000  0.4536140000000  0.5372120000000 1.0
C      1  0.5273020000000  0.4536140000000  0.4624060000000 1.0
C      1  0.5467910000000  0.4627040000000  0.5268130000000 1.0
C      1  0.5377010000000  0.4731030000000  0.5463020000000 1.0
C      1  0.5273020000000  0.4536140000000  0.5372120000000 1.0
C      1  0.4538050000000  0.4627040000000  0.4728050000000 1.0
C      1  0.4538050000000  0.5375100000000  0.5268130000000 1.0
C      1  0.5467910000000  0.5375100000000  0.4728050000000 1.0
C      1  0.4628950000000  0.4731030000000  0.4533160000000 1.0
C      1  0.4628950000000  0.5271110000000  0.5463020000000 1.0
C      1  0.5377010000000  0.5271110000000  0.4533160000000 1.0
C      1  0.4732940000000  0.4536140000000  0.4624060000000 1.0
C      1  0.4732940000000  0.5466000000000  0.5372120000000 1.0
C      1  0.5273020000000  0.5466000000000  0.4624060000000 1.0
C      1  0.4856850000000  0.4801390000000  0.4920150000000 1.0
C      1  0.4803290000000  0.4923120000000  0.4851960000000 1.0
C      1  0.4925030000000  0.4854940000000  0.4798410000000 1.0
C      1  0.5149110000000  0.4801390000000  0.5076040000000 1.0
C      1  0.5149110000000  0.5200750000000  0.4920150000000 1.0
C      1  0.4856850000000  0.5200750000000  0.5076040000000 1.0
C      1  0.5202660000000  0.4923120000000  0.5144220000000 1.0
C      1  0.5202660000000  0.5079010000000  0.4851960000000 1.0
C      1  0.4803290000000  0.5079010000000  0.5144220000000 1.0
C      1  0.5080920000000  0.4854940000000  0.5197780000000 1.0
C      1  0.5080920000000  0.5147200000000  0.4798410000000 1.0
C      1  0.4925030000000  0.5147200000000  0.5197780000000 1.0
C      1  0.4856850000000  0.5200750000000  0.4920150000000 1.0
C      1  0.4803290000000  0.5079010000000  0.4851960000000 1.0
C      1  0.4925030000000  0.5147200000000  0.4798410000000 1.0
C      1  0.5149110000000  0.5200750000000  0.5076040000000 1.0
C      1  0.5149110000000  0.4801390000000  0.4920150000000 1.0
C      1  0.4856850000000  0.4801390000000  0.5076040000000 1.0
C      1  0.5202660000000  0.5079010000000  0.5144220000000 1.0
C      1  0.5202660000000  0.4923120000000  0.4851960000000 1.0
C      1  0.4803290000000  0.4923120000000  0.5144220000000 1.0
C      1  0.5080920000000  0.5147200000000  0.5197780000000 1.0
C      1  0.5080920000000  0.4854940000000  0.4798410000000 1.0
C      1  0.4925030000000  0.4854940000000  0.5197780000000 1.0
C      1  0.5206210000000  0.4666470000000  0.4926670000000 1.0
C      1  0.4668380000000  0.4929650000000  0.5201330000000 1.0
C      1  0.4931550000000  0.5204310000000  0.4663500000000 1.0
C      1  0.4799740000000  0.4666470000000  0.5069520000000 1.0
C      1  0.4799740000000  0.5335660000000  0.4926670000000 1.0
C      1  0.5206210000000  0.5335660000000  0.5069520000000 1.0
C      1  0.5337570000000  0.4929650000000  0.4794850000000 1.0
C      1  0.5337570000000  0.5072490000000  0.5201330000000 1.0
C      1  0.4668380000000  0.5072490000000  0.4794860000000 1.0
C      1  0.5074400000000  0.5204310000000  0.5332690000000 1.0
C      1  0.5074400000000  0.4797830000000  0.4663500000000 1.0
C      1  0.4931550000000  0.4797830000000  0.5332690000000 1.0
C      1  0.5206210000000  0.5335660000000  0.4926670000000 1.0
C      1  0.4668380000000  0.5072490000000  0.5201330000000 1.0
C      1  0.4931550000000  0.4797830000000  0.4663500000000 1.0
C      1  0.4799740000000  0.5335660000000  0.5069520000000 1.0
C      1  0.4799740000000  0.4666470000000  0.4926670000000 1.0
C      1  0.5206210000000  0.4666470000000  0.5069520000000 1.0
C      1  0.5337570000000  0.5072490000000  0.4794850000000 1.0
C      1  0.5337570000000  0.4929650000000  0.5201330000000 1.0
C      1  0.4668380000000  0.4929650000000  0.4794860000000 1.0
C      1  0.5074400000000  0.4797830000000  0.5332690000000 1.0
C      1  0.5074400000000  0.5204310000000  0.4663500000000 1.0
C      1  0.4931550000000  0.5204310000000  0.5332690000000 1.0
C      1  0.4613980000000  0.4612070000000  0.5387090000000 1.0
C      1  0.4613980000000  0.5390070000000  0.4609090000000 1.0
C      1  0.5391980000000  0.4612070000000  0.4609090000000 1.0
C      1  0.4613980000000  0.5390070000000  0.5387090000000 1.0
C      1  0.5391980000000  0.5390070000000  0.4609090000000 1.0
C      1  0.5391980000000  0.4612070000000  0.5387090000000 1.0
C      1  0.5391980000000  0.5390070000000  0.5387090000000 1.0
C      1  0.4613980000000  0.4612070000000  0.4609090000000 1.0
END
