TITL C-1887016-2763-56 -2.21917583896266e-06 1000000 -2855.13270027301 0 0 420 (Th) n - 1
REM
REM in /nfs/bkarasulu/CARBON/AIRSS/Generating-Clusters/GAP-ML-2020/Higher-Symm/Selected-Sizes/TryA-Only_Ih-Symm/Larger-Clusters
REM
REM
REM
REM
REM
REM ./C.cell (2cf5181f0f1d4d5b12b972d32ad12063)
REM
REM compiler GCC version 9.2.1 20190827 (Red Hat 9.2.1-1)
REM options -cpp -mtune=generic -march=x86-64 -g -O0 -fpre-include=/usr/include/finclude/math-vector-fortran.h
REM seed -165868188 864494353 -924833367 -2071714617 1027195202 -316545201 -1431561976 -1342649383 64605397 470919688 -1617923753 -1010908035 974747798 1837531002 2086324261 -1753508519 874495327 -1643616458 966808220 1774706011 1996977711 -315105276 1255590035 1530990793 -696080994 1318466401 -1012060285 -952566998 416029053 675298198 -50354777 -418486693 -1973341796
REM
CELL 1.54180  100.00000  100.00000  100.00000   90.00000   90.00000   90.00000
LATT -1
SFAC C  
C      1  0.4409360000000  0.5734600000000  0.5071820000000 1.0
C      1  0.5071820000000  0.4409360000000  0.5734600000000 1.0
C      1  0.5734600000000  0.5071820000000  0.4409360000000 1.0
C      1  0.4409360000000  0.4265400000000  0.4928180000000 1.0
C      1  0.5590640000000  0.4265400000000  0.5071820000000 1.0
C      1  0.5590640000000  0.5734600000000  0.4928180000000 1.0
C      1  0.5071820000000  0.5590640000000  0.4265400000000 1.0
C      1  0.4928180000000  0.5590640000000  0.5734600000000 1.0
C      1  0.4928180000000  0.4409360000000  0.4265400000000 1.0
C      1  0.5734600000000  0.4928180000000  0.5590640000000 1.0
C      1  0.4265400000000  0.4928180000000  0.4409360000000 1.0
C      1  0.4265400000000  0.5071820000000  0.5590640000000 1.0
C      1  0.5590640000000  0.5734600000000  0.5071820000000 1.0
C      1  0.4928180000000  0.4409360000000  0.5734600000000 1.0
C      1  0.4265400000000  0.5071820000000  0.4409360000000 1.0
C      1  0.5590640000000  0.4265400000000  0.4928180000000 1.0
C      1  0.4409360000000  0.4265400000000  0.5071820000000 1.0
C      1  0.4409360000000  0.5734600000000  0.4928180000000 1.0
C      1  0.4928180000000  0.5590640000000  0.4265400000000 1.0
C      1  0.5071820000000  0.5590640000000  0.5734600000000 1.0
C      1  0.5071820000000  0.4409360000000  0.4265400000000 1.0
C      1  0.4265400000000  0.4928180000000  0.5590640000000 1.0
C      1  0.5734600000000  0.4928180000000  0.4409360000000 1.0
C      1  0.5734600000000  0.5071820000000  0.5590640000000 1.0
C      1  0.5517890000000  0.5271610000000  0.5131430000000 1.0
C      1  0.5131430000000  0.5517890000000  0.5271610000000 1.0
C      1  0.5271610000000  0.5131430000000  0.5517890000000 1.0
C      1  0.5517890000000  0.4728390000000  0.4868570000000 1.0
C      1  0.4482110000000  0.4728390000000  0.5131430000000 1.0
C      1  0.4482110000000  0.5271610000000  0.4868570000000 1.0
C      1  0.5131430000000  0.4482110000000  0.4728390000000 1.0
C      1  0.4868570000000  0.4482110000000  0.5271610000000 1.0
C      1  0.4868570000000  0.5517890000000  0.4728390000000 1.0
C      1  0.5271610000000  0.4868570000000  0.4482110000000 1.0
C      1  0.4728390000000  0.4868570000000  0.5517890000000 1.0
C      1  0.4728390000000  0.5131430000000  0.4482110000000 1.0
C      1  0.4482110000000  0.5271610000000  0.5131430000000 1.0
C      1  0.4868570000000  0.5517890000000  0.5271610000000 1.0
C      1  0.4728390000000  0.5131430000000  0.5517890000000 1.0
C      1  0.4482110000000  0.4728390000000  0.4868570000000 1.0
C      1  0.5517890000000  0.4728390000000  0.5131430000000 1.0
C      1  0.5517890000000  0.5271610000000  0.4868570000000 1.0
C      1  0.4868570000000  0.4482110000000  0.4728390000000 1.0
C      1  0.5131430000000  0.4482110000000  0.5271610000000 1.0
C      1  0.5131430000000  0.5517890000000  0.4728390000000 1.0
C      1  0.4728390000000  0.4868570000000  0.4482110000000 1.0
C      1  0.5271610000000  0.4868570000000  0.5517890000000 1.0
C      1  0.5271610000000  0.5131430000000  0.4482110000000 1.0
C      1  0.4661590000000  0.4744570000000  0.4532890000000 1.0
C      1  0.4532890000000  0.4661590000000  0.4744570000000 1.0
C      1  0.4744570000000  0.4532890000000  0.4661590000000 1.0
C      1  0.4661590000000  0.5255430000000  0.5467110000000 1.0
C      1  0.5338410000000  0.5255430000000  0.4532890000000 1.0
C      1  0.5338410000000  0.4744570000000  0.5467110000000 1.0
C      1  0.4532890000000  0.5338410000000  0.5255430000000 1.0
C      1  0.5467110000000  0.5338410000000  0.4744570000000 1.0
C      1  0.5467110000000  0.4661590000000  0.5255430000000 1.0
C      1  0.4744570000000  0.5467110000000  0.5338410000000 1.0
C      1  0.5255430000000  0.5467110000000  0.4661590000000 1.0
C      1  0.5255430000000  0.4532890000000  0.5338410000000 1.0
C      1  0.5338410000000  0.4744570000000  0.4532890000000 1.0
C      1  0.5467110000000  0.4661590000000  0.4744570000000 1.0
C      1  0.5255430000000  0.4532890000000  0.4661590000000 1.0
C      1  0.5338410000000  0.5255430000000  0.5467110000000 1.0
C      1  0.4661590000000  0.5255430000000  0.4532890000000 1.0
C      1  0.4661590000000  0.4744570000000  0.5467110000000 1.0
C      1  0.5467110000000  0.5338410000000  0.5255430000000 1.0
C      1  0.4532890000000  0.5338410000000  0.4744570000000 1.0
C      1  0.4532890000000  0.4661590000000  0.5255430000000 1.0
C      1  0.5255430000000  0.5467110000000  0.5338410000000 1.0
C      1  0.4744570000000  0.5467110000000  0.4661590000000 1.0
C      1  0.4744570000000  0.4532890000000  0.5338410000000 1.0
C      1  0.5072970000000  0.4832000000000  0.5389190000000 1.0
C      1  0.5389190000000  0.5072970000000  0.4832000000000 1.0
C      1  0.4832000000000  0.5389190000000  0.5072970000000 1.0
C      1  0.5072970000000  0.5168000000000  0.4610810000000 1.0
C      1  0.4927030000000  0.5168000000000  0.5389190000000 1.0
C      1  0.4927030000000  0.4832000000000  0.4610810000000 1.0
C      1  0.5389190000000  0.4927030000000  0.5168000000000 1.0
C      1  0.4610810000000  0.4927030000000  0.4832000000000 1.0
C      1  0.4610810000000  0.5072970000000  0.5168000000000 1.0
C      1  0.4832000000000  0.4610810000000  0.4927030000000 1.0
C      1  0.5168000000000  0.4610810000000  0.5072970000000 1.0
C      1  0.5168000000000  0.5389190000000  0.4927030000000 1.0
C      1  0.4927030000000  0.4832000000000  0.5389190000000 1.0
C      1  0.4610810000000  0.5072970000000  0.4832000000000 1.0
C      1  0.5168000000000  0.5389190000000  0.5072970000000 1.0
C      1  0.4927030000000  0.5168000000000  0.4610810000000 1.0
C      1  0.5072970000000  0.5168000000000  0.5389190000000 1.0
C      1  0.5072970000000  0.4832000000000  0.4610810000000 1.0
C      1  0.4610810000000  0.4927030000000  0.5168000000000 1.0
C      1  0.5389190000000  0.4927030000000  0.4832000000000 1.0
C      1  0.5389190000000  0.5072970000000  0.5168000000000 1.0
C      1  0.5168000000000  0.4610810000000  0.4927030000000 1.0
C      1  0.4832000000000  0.4610810000000  0.5072970000000 1.0
C      1  0.4832000000000  0.5389190000000  0.4927030000000 1.0
C      1  0.5125690000000  0.5677650000000  0.4758820000000 1.0
C      1  0.4758820000000  0.5125690000000  0.5677650000000 1.0
C      1  0.5677650000000  0.4758830000000  0.5125690000000 1.0
C      1  0.5125690000000  0.4322350000000  0.5241180000000 1.0
C      1  0.4874310000000  0.4322350000000  0.4758820000000 1.0
C      1  0.4874310000000  0.5677650000000  0.5241170000000 1.0
C      1  0.4758820000000  0.4874310000000  0.4322350000000 1.0
C      1  0.5241180000000  0.4874310000000  0.5677650000000 1.0
C      1  0.5241180000000  0.5125690000000  0.4322350000000 1.0
C      1  0.5677650000000  0.5241180000000  0.4874310000000 1.0
C      1  0.4322350000000  0.5241180000000  0.5125690000000 1.0
C      1  0.4322350000000  0.4758820000000  0.4874310000000 1.0
C      1  0.4874310000000  0.5677650000000  0.4758820000000 1.0
C      1  0.5241180000000  0.5125690000000  0.5677650000000 1.0
C      1  0.4322350000000  0.4758820000000  0.5125690000000 1.0
C      1  0.4874310000000  0.4322350000000  0.5241180000000 1.0
C      1  0.5125690000000  0.4322350000000  0.4758820000000 1.0
C      1  0.5125690000000  0.5677650000000  0.5241170000000 1.0
C      1  0.5241180000000  0.4874310000000  0.4322350000000 1.0
C      1  0.4758820000000  0.4874310000000  0.5677650000000 1.0
C      1  0.4758820000000  0.5125690000000  0.4322350000000 1.0
C      1  0.4322350000000  0.5241180000000  0.4874310000000 1.0
C      1  0.5677650000000  0.5241180000000  0.5125690000000 1.0
C      1  0.5677650000000  0.4758830000000  0.4874310000000 1.0
C      1  0.5454070000000  0.4885690000000  0.4704690000000 1.0
C      1  0.4704690000000  0.5454070000000  0.4885690000000 1.0
C      1  0.4885690000000  0.4704690000000  0.5454070000000 1.0
C      1  0.5454070000000  0.5114310000000  0.5295310000000 1.0
C      1  0.4545930000000  0.5114310000000  0.4704690000000 1.0
C      1  0.4545930000000  0.4885690000000  0.5295310000000 1.0
C      1  0.4704690000000  0.4545930000000  0.5114310000000 1.0
C      1  0.5295310000000  0.4545930000000  0.4885690000000 1.0
C      1  0.5295310000000  0.5454070000000  0.5114310000000 1.0
C      1  0.4885690000000  0.5295310000000  0.4545930000000 1.0
C      1  0.5114310000000  0.5295310000000  0.5454070000000 1.0
C      1  0.5114310000000  0.4704690000000  0.4545930000000 1.0
C      1  0.4545930000000  0.4885690000000  0.4704690000000 1.0
C      1  0.5295310000000  0.5454070000000  0.4885690000000 1.0
C      1  0.5114310000000  0.4704690000000  0.5454070000000 1.0
C      1  0.4545930000000  0.5114310000000  0.5295310000000 1.0
C      1  0.5454070000000  0.5114310000000  0.4704690000000 1.0
C      1  0.5454070000000  0.4885690000000  0.5295310000000 1.0
C      1  0.5295310000000  0.4545930000000  0.5114310000000 1.0
C      1  0.4704690000000  0.4545930000000  0.4885690000000 1.0
C      1  0.4704690000000  0.5454070000000  0.5114310000000 1.0
C      1  0.5114310000000  0.5295310000000  0.4545930000000 1.0
C      1  0.4885690000000  0.5295310000000  0.5454070000000 1.0
C      1  0.4885690000000  0.4704690000000  0.4545930000000 1.0
C      1  0.4678460000000  0.4197630000000  0.5081360000000 1.0
C      1  0.5081360000000  0.4678460000000  0.4197630000000 1.0
C      1  0.4197630000000  0.5081360000000  0.4678460000000 1.0
C      1  0.4678460000000  0.5802370000000  0.4918640000000 1.0
C      1  0.5321540000000  0.5802370000000  0.5081360000000 1.0
C      1  0.5321540000000  0.4197630000000  0.4918640000000 1.0
C      1  0.5081360000000  0.5321540000000  0.5802370000000 1.0
C      1  0.4918640000000  0.5321540000000  0.4197630000000 1.0
C      1  0.4918640000000  0.4678460000000  0.5802370000000 1.0
C      1  0.4197630000000  0.4918640000000  0.5321540000000 1.0
C      1  0.5802370000000  0.4918640000000  0.4678460000000 1.0
C      1  0.5802370000000  0.5081360000000  0.5321540000000 1.0
C      1  0.5321540000000  0.4197630000000  0.5081360000000 1.0
C      1  0.4918640000000  0.4678460000000  0.4197630000000 1.0
C      1  0.5802370000000  0.5081360000000  0.4678460000000 1.0
C      1  0.5321540000000  0.5802370000000  0.4918640000000 1.0
C      1  0.4678460000000  0.5802370000000  0.5081360000000 1.0
C      1  0.4678460000000  0.4197630000000  0.4918640000000 1.0
C      1  0.4918640000000  0.5321540000000  0.5802370000000 1.0
C      1  0.5081360000000  0.5321540000000  0.4197630000000 1.0
C      1  0.5081360000000  0.4678460000000  0.5802370000000 1.0
C      1  0.5802370000000  0.4918640000000  0.5321540000000 1.0
C      1  0.4197630000000  0.4918640000000  0.4678460000000 1.0
C      1  0.4197630000000  0.5081360000000  0.5321540000000 1.0
C      1  0.5717440000000  0.4481060000000  0.4927790000000 1.0
C      1  0.4927790000000  0.5717440000000  0.4481060000000 1.0
C      1  0.4481060000000  0.4927790000000  0.5717440000000 1.0
C      1  0.5717440000000  0.5518940000000  0.5072210000000 1.0
C      1  0.4282560000000  0.5518940000000  0.4927790000000 1.0
C      1  0.4282560000000  0.4481060000000  0.5072210000000 1.0
C      1  0.4927790000000  0.4282560000000  0.5518940000000 1.0
C      1  0.5072210000000  0.4282560000000  0.4481060000000 1.0
C      1  0.5072210000000  0.5717440000000  0.5518940000000 1.0
C      1  0.4481060000000  0.5072210000000  0.4282560000000 1.0
C      1  0.5518940000000  0.5072210000000  0.5717440000000 1.0
C      1  0.5518940000000  0.4927790000000  0.4282560000000 1.0
C      1  0.4282560000000  0.4481060000000  0.4927790000000 1.0
C      1  0.5072210000000  0.5717440000000  0.4481060000000 1.0
C      1  0.5518940000000  0.4927790000000  0.5717440000000 1.0
C      1  0.4282560000000  0.5518940000000  0.5072210000000 1.0
C      1  0.5717440000000  0.5518940000000  0.4927790000000 1.0
C      1  0.5717440000000  0.4481060000000  0.5072210000000 1.0
C      1  0.5072210000000  0.4282560000000  0.5518940000000 1.0
C      1  0.4927790000000  0.4282560000000  0.4481060000000 1.0
C      1  0.4927790000000  0.5717440000000  0.5518940000000 1.0
C      1  0.5518940000000  0.5072210000000  0.4282560000000 1.0
C      1  0.4481060000000  0.5072210000000  0.5717440000000 1.0
C      1  0.4481060000000  0.4927790000000  0.4282560000000 1.0
C      1  0.5809170000000  0.4922590000000  0.5464810000000 1.0
C      1  0.5464810000000  0.5809170000000  0.4922590000000 1.0
C      1  0.4922590000000  0.5464810000000  0.5809170000000 1.0
C      1  0.5809170000000  0.5077410000000  0.4535190000000 1.0
C      1  0.4190830000000  0.5077410000000  0.5464810000000 1.0
C      1  0.4190830000000  0.4922590000000  0.4535190000000 1.0
C      1  0.5464810000000  0.4190830000000  0.5077410000000 1.0
C      1  0.4535190000000  0.4190830000000  0.4922590000000 1.0
C      1  0.4535190000000  0.5809170000000  0.5077410000000 1.0
C      1  0.4922590000000  0.4535190000000  0.4190830000000 1.0
C      1  0.5077410000000  0.4535190000000  0.5809170000000 1.0
C      1  0.5077410000000  0.5464810000000  0.4190830000000 1.0
C      1  0.4190830000000  0.4922590000000  0.5464810000000 1.0
C      1  0.4535190000000  0.5809170000000  0.4922590000000 1.0
C      1  0.5077410000000  0.5464810000000  0.5809170000000 1.0
C      1  0.4190830000000  0.5077410000000  0.4535190000000 1.0
C      1  0.5809170000000  0.5077410000000  0.5464810000000 1.0
C      1  0.5809170000000  0.4922590000000  0.4535190000000 1.0
C      1  0.4535190000000  0.4190830000000  0.5077410000000 1.0
C      1  0.5464810000000  0.4190830000000  0.4922590000000 1.0
C      1  0.5464810000000  0.5809170000000  0.5077410000000 1.0
C      1  0.5077410000000  0.4535190000000  0.4190830000000 1.0
C      1  0.4922590000000  0.4535190000000  0.5809170000000 1.0
C      1  0.4922590000000  0.5464810000000  0.4190830000000 1.0
C      1  0.5240970000000  0.5355480000000  0.5439830000000 1.0
C      1  0.5439830000000  0.5240970000000  0.5355480000000 1.0
C      1  0.5355480000000  0.5439830000000  0.5240970000000 1.0
C      1  0.5240970000000  0.4644520000000  0.4560170000000 1.0
C      1  0.4759030000000  0.4644520000000  0.5439830000000 1.0
C      1  0.4759030000000  0.5355480000000  0.4560170000000 1.0
C      1  0.5439830000000  0.4759030000000  0.4644520000000 1.0
C      1  0.4560170000000  0.4759030000000  0.5355480000000 1.0
C      1  0.4560170000000  0.5240970000000  0.4644520000000 1.0
C      1  0.5355480000000  0.4560170000000  0.4759030000000 1.0
C      1  0.4644520000000  0.4560170000000  0.5240970000000 1.0
C      1  0.4644520000000  0.5439830000000  0.4759030000000 1.0
C      1  0.4759030000000  0.5355480000000  0.5439830000000 1.0
C      1  0.4560170000000  0.5240970000000  0.5355480000000 1.0
C      1  0.4644520000000  0.5439830000000  0.5240970000000 1.0
C      1  0.4759030000000  0.4644520000000  0.4560170000000 1.0
C      1  0.5240970000000  0.4644520000000  0.5439830000000 1.0
C      1  0.5240970000000  0.5355480000000  0.4560170000000 1.0
C      1  0.4560170000000  0.4759030000000  0.4644520000000 1.0
C      1  0.5439830000000  0.4759030000000  0.5355480000000 1.0
C      1  0.5439830000000  0.5240970000000  0.4644520000000 1.0
C      1  0.4644520000000  0.4560170000000  0.4759030000000 1.0
C      1  0.5355480000000  0.4560170000000  0.5240970000000 1.0
C      1  0.5355480000000  0.5439830000000  0.4759030000000 1.0
C      1  0.4626050000000  0.4926750000000  0.4262420000000 1.0
C      1  0.4262420000000  0.4626050000000  0.4926750000000 1.0
C      1  0.4926750000000  0.4262420000000  0.4626050000000 1.0
C      1  0.4626050000000  0.5073250000000  0.5737580000000 1.0
C      1  0.5373950000000  0.5073250000000  0.4262420000000 1.0
C      1  0.5373950000000  0.4926750000000  0.5737580000000 1.0
C      1  0.4262420000000  0.5373950000000  0.5073250000000 1.0
C      1  0.5737580000000  0.5373950000000  0.4926750000000 1.0
C      1  0.5737580000000  0.4626050000000  0.5073250000000 1.0
C      1  0.4926750000000  0.5737580000000  0.5373950000000 1.0
C      1  0.5073250000000  0.5737580000000  0.4626050000000 1.0
C      1  0.5073250000000  0.4262420000000  0.5373950000000 1.0
C      1  0.5373950000000  0.4926750000000  0.4262420000000 1.0
C      1  0.5737580000000  0.4626050000000  0.4926750000000 1.0
C      1  0.5073250000000  0.4262420000000  0.4626050000000 1.0
C      1  0.5373950000000  0.5073250000000  0.5737580000000 1.0
C      1  0.4626050000000  0.5073250000000  0.4262420000000 1.0
C      1  0.4626050000000  0.4926750000000  0.5737580000000 1.0
C      1  0.5737580000000  0.5373950000000  0.5073250000000 1.0
C      1  0.4262420000000  0.5373950000000  0.4926750000000 1.0
C      1  0.4262420000000  0.4626050000000  0.5073250000000 1.0
C      1  0.5073250000000  0.5737580000000  0.5373950000000 1.0
C      1  0.4926750000000  0.5737580000000  0.4626050000000 1.0
C      1  0.4926750000000  0.4262420000000  0.5373950000000 1.0
C      1  0.5572830000000  0.5251180000000  0.4425220000000 1.0
C      1  0.4425220000000  0.5572830000000  0.5251180000000 1.0
C      1  0.5251180000000  0.4425220000000  0.5572830000000 1.0
C      1  0.5572830000000  0.4748820000000  0.5574780000000 1.0
C      1  0.4427170000000  0.4748820000000  0.4425220000000 1.0
C      1  0.4427170000000  0.5251180000000  0.5574780000000 1.0
C      1  0.4425220000000  0.4427170000000  0.4748820000000 1.0
C      1  0.5574780000000  0.4427170000000  0.5251180000000 1.0
C      1  0.5574780000000  0.5572830000000  0.4748820000000 1.0
C      1  0.5251180000000  0.5574780000000  0.4427170000000 1.0
C      1  0.4748820000000  0.5574780000000  0.5572830000000 1.0
C      1  0.4748820000000  0.4425220000000  0.4427170000000 1.0
C      1  0.4427170000000  0.5251180000000  0.4425220000000 1.0
C      1  0.5574780000000  0.5572830000000  0.5251180000000 1.0
C      1  0.4748820000000  0.4425220000000  0.5572830000000 1.0
C      1  0.4427170000000  0.4748820000000  0.5574780000000 1.0
C      1  0.5572830000000  0.4748820000000  0.4425220000000 1.0
C      1  0.5572830000000  0.5251180000000  0.5574780000000 1.0
C      1  0.5574780000000  0.4427170000000  0.4748820000000 1.0
C      1  0.4425220000000  0.4427170000000  0.5251180000000 1.0
C      1  0.4425220000000  0.5572830000000  0.4748820000000 1.0
C      1  0.4748820000000  0.5574780000000  0.4427170000000 1.0
C      1  0.5251180000000  0.5574780000000  0.5572830000000 1.0
C      1  0.5251180000000  0.4425220000000  0.4427170000000 1.0
C      1  0.4854630000000  0.4355730000000  0.4378090000000 1.0
C      1  0.4378090000000  0.4854630000000  0.4355730000000 1.0
C      1  0.4355730000000  0.4378090000000  0.4854630000000 1.0
C      1  0.4854630000000  0.5644270000000  0.5621910000000 1.0
C      1  0.5145370000000  0.5644270000000  0.4378090000000 1.0
C      1  0.5145370000000  0.4355730000000  0.5621910000000 1.0
C      1  0.4378090000000  0.5145370000000  0.5644270000000 1.0
C      1  0.5621910000000  0.5145370000000  0.4355730000000 1.0
C      1  0.5621910000000  0.4854630000000  0.5644270000000 1.0
C      1  0.4355730000000  0.5621910000000  0.5145370000000 1.0
C      1  0.5644270000000  0.5621910000000  0.4854630000000 1.0
C      1  0.5644270000000  0.4378090000000  0.5145370000000 1.0
C      1  0.5145370000000  0.4355730000000  0.4378090000000 1.0
C      1  0.5621910000000  0.4854630000000  0.4355730000000 1.0
C      1  0.5644270000000  0.4378090000000  0.4854630000000 1.0
C      1  0.5145370000000  0.5644270000000  0.5621910000000 1.0
C      1  0.4854630000000  0.5644270000000  0.4378090000000 1.0
C      1  0.4854630000000  0.4355730000000  0.5621910000000 1.0
C      1  0.5621910000000  0.5145370000000  0.5644270000000 1.0
C      1  0.4378090000000  0.5145370000000  0.4355730000000 1.0
C      1  0.4378090000000  0.4854630000000  0.5644270000000 1.0
C      1  0.5644270000000  0.5621910000000  0.5145370000000 1.0
C      1  0.4355730000000  0.5621910000000  0.4854630000000 1.0
C      1  0.4355730000000  0.4378090000000  0.5145370000000 1.0
C      1  0.5429710000000  0.5171620000000  0.4928450000000 1.0
C      1  0.4928450000000  0.5429710000000  0.5171620000000 1.0
C      1  0.5171620000000  0.4928450000000  0.5429710000000 1.0
C      1  0.5429710000000  0.4828380000000  0.5071550000000 1.0
C      1  0.4570290000000  0.4828380000000  0.4928450000000 1.0
C      1  0.4570290000000  0.5171620000000  0.5071550000000 1.0
C      1  0.4928450000000  0.4570290000000  0.4828380000000 1.0
C      1  0.5071550000000  0.4570290000000  0.5171620000000 1.0
C      1  0.5071550000000  0.5429710000000  0.4828380000000 1.0
C      1  0.5171620000000  0.5071550000000  0.4570290000000 1.0
C      1  0.4828380000000  0.5071550000000  0.5429710000000 1.0
C      1  0.4828380000000  0.4928450000000  0.4570290000000 1.0
C      1  0.4570290000000  0.5171620000000  0.4928450000000 1.0
C      1  0.5071550000000  0.5429710000000  0.5171620000000 1.0
C      1  0.4828380000000  0.4928450000000  0.5429710000000 1.0
C      1  0.4570290000000  0.4828380000000  0.5071550000000 1.0
C      1  0.5429710000000  0.4828380000000  0.4928450000000 1.0
C      1  0.5429710000000  0.5171620000000  0.5071550000000 1.0
C      1  0.5071550000000  0.4570290000000  0.4828380000000 1.0
C      1  0.4928450000000  0.4570290000000  0.5171620000000 1.0
C      1  0.4928450000000  0.5429710000000  0.4828380000000 1.0
C      1  0.4828380000000  0.5071550000000  0.4570290000000 1.0
C      1  0.5171620000000  0.5071550000000  0.5429710000000 1.0
C      1  0.5171620000000  0.4928450000000  0.4570290000000 1.0
C      1  0.5068290000000  0.4717520000000  0.4410350000000 1.0
C      1  0.4410350000000  0.5068290000000  0.4717520000000 1.0
C      1  0.4717520000000  0.4410350000000  0.5068290000000 1.0
C      1  0.5068290000000  0.5282480000000  0.5589650000000 1.0
C      1  0.4931710000000  0.5282480000000  0.4410350000000 1.0
C      1  0.4931710000000  0.4717520000000  0.5589650000000 1.0
C      1  0.4410350000000  0.4931710000000  0.5282480000000 1.0
C      1  0.5589650000000  0.4931710000000  0.4717520000000 1.0
C      1  0.5589650000000  0.5068290000000  0.5282480000000 1.0
C      1  0.4717520000000  0.5589650000000  0.4931710000000 1.0
C      1  0.5282480000000  0.5589650000000  0.5068290000000 1.0
C      1  0.5282480000000  0.4410350000000  0.4931710000000 1.0
C      1  0.4931710000000  0.4717520000000  0.4410350000000 1.0
C      1  0.5589650000000  0.5068290000000  0.4717520000000 1.0
C      1  0.5282480000000  0.4410350000000  0.5068290000000 1.0
C      1  0.4931710000000  0.5282480000000  0.5589650000000 1.0
C      1  0.5068290000000  0.5282480000000  0.4410350000000 1.0
C      1  0.5068290000000  0.4717520000000  0.5589650000000 1.0
C      1  0.5589650000000  0.4931710000000  0.5282480000000 1.0
C      1  0.4410350000000  0.4931710000000  0.4717520000000 1.0
C      1  0.4410350000000  0.5068290000000  0.5282480000000 1.0
C      1  0.5282480000000  0.5589650000000  0.4931710000000 1.0
C      1  0.4717520000000  0.5589650000000  0.5068290000000 1.0
C      1  0.4717520000000  0.4410350000000  0.4931710000000 1.0
C      1  0.5502310000000  0.5476450000000  0.4708080000000 1.0
C      1  0.4708080000000  0.5502310000000  0.5476450000000 1.0
C      1  0.5476450000000  0.4708080000000  0.5502310000000 1.0
C      1  0.5502310000000  0.4523550000000  0.5291920000000 1.0
C      1  0.4497690000000  0.4523550000000  0.4708080000000 1.0
C      1  0.4497690000000  0.5476450000000  0.5291920000000 1.0
C      1  0.4708080000000  0.4497690000000  0.4523550000000 1.0
C      1  0.5291920000000  0.4497690000000  0.5476450000000 1.0
C      1  0.5291920000000  0.5502310000000  0.4523550000000 1.0
C      1  0.5476450000000  0.5291920000000  0.4497690000000 1.0
C      1  0.4523550000000  0.5291920000000  0.5502310000000 1.0
C      1  0.4523550000000  0.4708080000000  0.4497690000000 1.0
C      1  0.4497690000000  0.5476450000000  0.4708080000000 1.0
C      1  0.5291920000000  0.5502310000000  0.5476450000000 1.0
C      1  0.4523550000000  0.4708080000000  0.5502310000000 1.0
C      1  0.4497690000000  0.4523550000000  0.5291920000000 1.0
C      1  0.5502310000000  0.4523550000000  0.4708080000000 1.0
C      1  0.5502310000000  0.5476450000000  0.5291920000000 1.0
C      1  0.5291920000000  0.4497690000000  0.4523550000000 1.0
C      1  0.4708080000000  0.4497690000000  0.5476450000000 1.0
C      1  0.4708080000000  0.5502310000000  0.4523550000000 1.0
C      1  0.4523550000000  0.5291920000000  0.4497690000000 1.0
C      1  0.5476450000000  0.5291920000000  0.5502310000000 1.0
C      1  0.5476450000000  0.4708080000000  0.4497690000000 1.0
C      1  0.4752060000000  0.5702680000000  0.4851200000000 1.0
C      1  0.4851200000000  0.4752060000000  0.5702680000000 1.0
C      1  0.5702680000000  0.4851200000000  0.4752060000000 1.0
C      1  0.4752060000000  0.4297320000000  0.5148800000000 1.0
C      1  0.5247940000000  0.4297320000000  0.4851200000000 1.0
C      1  0.5247940000000  0.5702680000000  0.5148800000000 1.0
C      1  0.4851200000000  0.5247940000000  0.4297320000000 1.0
C      1  0.5148800000000  0.5247940000000  0.5702680000000 1.0
C      1  0.5148800000000  0.4752060000000  0.4297320000000 1.0
C      1  0.5702680000000  0.5148800000000  0.5247940000000 1.0
C      1  0.4297320000000  0.5148800000000  0.4752060000000 1.0
C      1  0.4297320000000  0.4851200000000  0.5247940000000 1.0
C      1  0.5247940000000  0.5702680000000  0.4851200000000 1.0
C      1  0.5148800000000  0.4752060000000  0.5702680000000 1.0
C      1  0.4297320000000  0.4851200000000  0.4752060000000 1.0
C      1  0.5247940000000  0.4297320000000  0.5148800000000 1.0
C      1  0.4752060000000  0.4297320000000  0.4851200000000 1.0
C      1  0.4752060000000  0.5702680000000  0.5148800000000 1.0
C      1  0.5148800000000  0.5247940000000  0.4297320000000 1.0
C      1  0.4851200000000  0.5247940000000  0.5702680000000 1.0
C      1  0.4851200000000  0.4752060000000  0.4297320000000 1.0
C      1  0.4297320000000  0.5148800000000  0.5247940000000 1.0
C      1  0.5702680000000  0.5148800000000  0.4752060000000 1.0
C      1  0.5702680000000  0.4851200000000  0.5247940000000 1.0
C      1  0.4827080000000  0.5000000000000  0.5715810000000 1.0
C      1  0.5715810000000  0.4827080000000  0.5000000000000 1.0
C      1  0.5000000000000  0.5715810000000  0.4827080000000 1.0
C      1  0.4827080000000  0.5000000000000  0.4284190000000 1.0
C      1  0.5172920000000  0.5000000000000  0.5715810000000 1.0
C      1  0.5172920000000  0.5000000000000  0.4284190000000 1.0
C      1  0.5715810000000  0.5172920000000  0.5000000000000 1.0
C      1  0.4284190000000  0.5172920000000  0.5000000000000 1.0
C      1  0.4284190000000  0.4827080000000  0.5000000000000 1.0
C      1  0.5000000000000  0.4284190000000  0.5172920000000 1.0
C      1  0.5000000000000  0.4284190000000  0.4827080000000 1.0
C      1  0.5000000000000  0.5715810000000  0.5172920000000 1.0
END
