TITL C-1887012-575-3 2.19522788685374e-06 1000000 -3748.54298125707 0 0 540 (Th) n - 1
REM
REM in /nfs/bkarasulu/CARBON/AIRSS/Generating-Clusters/GAP-ML-2020/Higher-Symm/Selected-Sizes/TryA-Only_Ih-Symm/Larger-Clusters
REM
REM
REM
REM
REM
REM ./C.cell (2cf5181f0f1d4d5b12b972d32ad12063)
REM
REM compiler GCC version 9.2.1 20190827 (Red Hat 9.2.1-1)
REM options -cpp -mtune=generic -march=x86-64 -g -O0 -fpre-include=/usr/include/finclude/math-vector-fortran.h
REM seed 1282613196 -2048621299 -2129245167 757348095 -1171075364 -285743098 2093623892 -1005168292 708326812 315991 1334440722 -1216346694 268197120 1591712646 1931831189 -1170754690 438829225 -43452019 1636797495 1965348765 2145561331 -492426598 792594154 -1739730815 885244968 1744279446 905957552 1108862459 -746502238 1819045167 1664810348 168442420 1003184591
REM
CELL 1.54180  100.00000  100.00000  100.00000   90.00000   90.00000   90.00000
LATT -1
SFAC C  
C      1  0.5481840000000  0.4326730000000  0.5170410000000 1.0
C      1  0.4326730000000  0.5170410000000  0.5481840000000 1.0
C      1  0.5170410000000  0.5481840000000  0.4326730000000 1.0
C      1  0.4518160000000  0.5673270000000  0.5170410000000 1.0
C      1  0.5481840000000  0.5673270000000  0.4829590000000 1.0
C      1  0.4518160000000  0.4326730000000  0.4829590000000 1.0
C      1  0.5673270000000  0.4829590000000  0.5481840000000 1.0
C      1  0.4326730000000  0.4829590000000  0.4518160000000 1.0
C      1  0.5673270000000  0.5170410000000  0.4518160000000 1.0
C      1  0.4829590000000  0.4518160000000  0.4326730000000 1.0
C      1  0.5170410000000  0.4518160000000  0.5673270000000 1.0
C      1  0.4829590000000  0.5481840000000  0.5673270000000 1.0
C      1  0.5481840000000  0.4326730000000  0.4829590000000 1.0
C      1  0.4326730000000  0.5170410000000  0.4518160000000 1.0
C      1  0.5170410000000  0.5481840000000  0.5673270000000 1.0
C      1  0.4518160000000  0.5673270000000  0.4829590000000 1.0
C      1  0.5481840000000  0.5673270000000  0.5170410000000 1.0
C      1  0.4518160000000  0.4326730000000  0.5170410000000 1.0
C      1  0.5673270000000  0.4829590000000  0.4518160000000 1.0
C      1  0.4326730000000  0.4829590000000  0.5481840000000 1.0
C      1  0.5673270000000  0.5170410000000  0.5481840000000 1.0
C      1  0.4829590000000  0.4518160000000  0.5673270000000 1.0
C      1  0.5170410000000  0.4518160000000  0.4326730000000 1.0
C      1  0.4829590000000  0.5481840000000  0.4326730000000 1.0
C      1  0.5181550000000  0.4375480000000  0.4587340000000 1.0
C      1  0.4375480000000  0.4587340000000  0.5181550000000 1.0
C      1  0.4587340000000  0.5181550000000  0.4375480000000 1.0
C      1  0.4818450000000  0.5624520000000  0.4587340000000 1.0
C      1  0.5181550000000  0.5624520000000  0.5412660000000 1.0
C      1  0.4818450000000  0.4375480000000  0.5412660000000 1.0
C      1  0.5624520000000  0.5412660000000  0.5181550000000 1.0
C      1  0.4375480000000  0.5412660000000  0.4818450000000 1.0
C      1  0.5624520000000  0.4587340000000  0.4818450000000 1.0
C      1  0.5412660000000  0.4818450000000  0.4375480000000 1.0
C      1  0.4587340000000  0.4818450000000  0.5624520000000 1.0
C      1  0.5412660000000  0.5181550000000  0.5624520000000 1.0
C      1  0.5181550000000  0.4375480000000  0.5412660000000 1.0
C      1  0.4375480000000  0.4587340000000  0.4818450000000 1.0
C      1  0.4587340000000  0.5181550000000  0.5624520000000 1.0
C      1  0.4818450000000  0.5624520000000  0.5412660000000 1.0
C      1  0.5181550000000  0.5624520000000  0.4587340000000 1.0
C      1  0.4818450000000  0.4375480000000  0.4587340000000 1.0
C      1  0.5624520000000  0.5412660000000  0.4818450000000 1.0
C      1  0.4375480000000  0.5412660000000  0.5181550000000 1.0
C      1  0.5624520000000  0.4587340000000  0.5181550000000 1.0
C      1  0.5412660000000  0.4818450000000  0.5624520000000 1.0
C      1  0.4587340000000  0.4818450000000  0.4375480000000 1.0
C      1  0.5412660000000  0.5181550000000  0.4375480000000 1.0
C      1  0.4662850000000  0.5451530000000  0.5650520000000 1.0
C      1  0.5451530000000  0.5650520000000  0.4662850000000 1.0
C      1  0.5650520000000  0.4662850000000  0.5451530000000 1.0
C      1  0.5337150000000  0.4548470000000  0.5650520000000 1.0
C      1  0.4662850000000  0.4548470000000  0.4349480000000 1.0
C      1  0.5337150000000  0.5451530000000  0.4349480000000 1.0
C      1  0.4548470000000  0.4349480000000  0.4662850000000 1.0
C      1  0.5451530000000  0.4349480000000  0.5337150000000 1.0
C      1  0.4548470000000  0.5650520000000  0.5337150000000 1.0
C      1  0.4349480000000  0.5337150000000  0.5451530000000 1.0
C      1  0.5650520000000  0.5337150000000  0.4548470000000 1.0
C      1  0.4349480000000  0.4662850000000  0.4548470000000 1.0
C      1  0.4662850000000  0.5451530000000  0.4349480000000 1.0
C      1  0.5451530000000  0.5650520000000  0.5337150000000 1.0
C      1  0.5650520000000  0.4662850000000  0.4548470000000 1.0
C      1  0.5337150000000  0.4548470000000  0.4349480000000 1.0
C      1  0.4662850000000  0.4548470000000  0.5650520000000 1.0
C      1  0.5337150000000  0.5451530000000  0.5650520000000 1.0
C      1  0.4548470000000  0.4349480000000  0.5337150000000 1.0
C      1  0.5451530000000  0.4349480000000  0.4662850000000 1.0
C      1  0.4548470000000  0.5650520000000  0.4662850000000 1.0
C      1  0.4349480000000  0.5337150000000  0.4548470000000 1.0
C      1  0.5650520000000  0.5337150000000  0.5451530000000 1.0
C      1  0.4349480000000  0.4662850000000  0.5451530000000 1.0
C      1  0.5273700000000  0.4251390000000  0.4782690000000 1.0
C      1  0.4251390000000  0.4782690000000  0.5273700000000 1.0
C      1  0.4782690000000  0.5273700000000  0.4251390000000 1.0
C      1  0.4726300000000  0.5748610000000  0.4782690000000 1.0
C      1  0.5273700000000  0.5748610000000  0.5217310000000 1.0
C      1  0.4726300000000  0.4251390000000  0.5217310000000 1.0
C      1  0.5748610000000  0.5217310000000  0.5273700000000 1.0
C      1  0.4251390000000  0.5217310000000  0.4726300000000 1.0
C      1  0.5748610000000  0.4782690000000  0.4726300000000 1.0
C      1  0.5217310000000  0.4726300000000  0.4251390000000 1.0
C      1  0.4782690000000  0.4726300000000  0.5748610000000 1.0
C      1  0.5217310000000  0.5273700000000  0.5748610000000 1.0
C      1  0.5273700000000  0.4251390000000  0.5217310000000 1.0
C      1  0.4251390000000  0.4782690000000  0.4726300000000 1.0
C      1  0.4782690000000  0.5273700000000  0.5748610000000 1.0
C      1  0.4726300000000  0.5748610000000  0.5217310000000 1.0
C      1  0.5273700000000  0.5748610000000  0.4782690000000 1.0
C      1  0.4726300000000  0.4251390000000  0.4782690000000 1.0
C      1  0.5748610000000  0.5217310000000  0.4726300000000 1.0
C      1  0.4251390000000  0.5217310000000  0.5273700000000 1.0
C      1  0.5748610000000  0.4782690000000  0.5273700000000 1.0
C      1  0.5217310000000  0.4726300000000  0.5748610000000 1.0
C      1  0.4782690000000  0.4726300000000  0.4251390000000 1.0
C      1  0.5217310000000  0.5273700000000  0.4251390000000 1.0
C      1  0.5335110000000  0.4691350000000  0.4323820000000 1.0
C      1  0.4691350000000  0.4323820000000  0.5335110000000 1.0
C      1  0.4323820000000  0.5335110000000  0.4691350000000 1.0
C      1  0.4664890000000  0.5308650000000  0.4323820000000 1.0
C      1  0.5335110000000  0.5308650000000  0.5676180000000 1.0
C      1  0.4664890000000  0.4691350000000  0.5676180000000 1.0
C      1  0.5308650000000  0.5676180000000  0.5335110000000 1.0
C      1  0.4691350000000  0.5676180000000  0.4664890000000 1.0
C      1  0.5308650000000  0.4323820000000  0.4664890000000 1.0
C      1  0.5676180000000  0.4664890000000  0.4691350000000 1.0
C      1  0.4323820000000  0.4664890000000  0.5308650000000 1.0
C      1  0.5676180000000  0.5335110000000  0.5308650000000 1.0
C      1  0.5335110000000  0.4691350000000  0.5676180000000 1.0
C      1  0.4691350000000  0.4323820000000  0.4664890000000 1.0
C      1  0.4323820000000  0.5335110000000  0.5308650000000 1.0
C      1  0.4664890000000  0.5308650000000  0.5676180000000 1.0
C      1  0.5335110000000  0.5308650000000  0.4323820000000 1.0
C      1  0.4664890000000  0.4691350000000  0.4323820000000 1.0
C      1  0.5308650000000  0.5676180000000  0.4664890000000 1.0
C      1  0.4691350000000  0.5676180000000  0.5335110000000 1.0
C      1  0.5308650000000  0.4323820000000  0.5335110000000 1.0
C      1  0.5676180000000  0.4664890000000  0.5308650000000 1.0
C      1  0.4323820000000  0.4664890000000  0.4691350000000 1.0
C      1  0.5676180000000  0.5335110000000  0.4691350000000 1.0
C      1  0.4601020000000  0.4458220000000  0.4842000000000 1.0
C      1  0.4458220000000  0.4842000000000  0.4601020000000 1.0
C      1  0.4842000000000  0.4601020000000  0.4458220000000 1.0
C      1  0.5398980000000  0.5541780000000  0.4842000000000 1.0
C      1  0.4601020000000  0.5541780000000  0.5158000000000 1.0
C      1  0.5398980000000  0.4458220000000  0.5158000000000 1.0
C      1  0.5541780000000  0.5158000000000  0.4601020000000 1.0
C      1  0.4458220000000  0.5158000000000  0.5398980000000 1.0
C      1  0.5541780000000  0.4842000000000  0.5398980000000 1.0
C      1  0.5158000000000  0.5398980000000  0.4458220000000 1.0
C      1  0.4842000000000  0.5398980000000  0.5541780000000 1.0
C      1  0.5158000000000  0.4601020000000  0.5541780000000 1.0
C      1  0.4601020000000  0.4458220000000  0.5158000000000 1.0
C      1  0.4458220000000  0.4842000000000  0.5398980000000 1.0
C      1  0.4842000000000  0.4601020000000  0.5541780000000 1.0
C      1  0.5398980000000  0.5541780000000  0.5158000000000 1.0
C      1  0.4601020000000  0.5541780000000  0.4842000000000 1.0
C      1  0.5398980000000  0.4458220000000  0.4842000000000 1.0
C      1  0.5541780000000  0.5158000000000  0.5398980000000 1.0
C      1  0.4458220000000  0.5158000000000  0.4601020000000 1.0
C      1  0.5541780000000  0.4842000000000  0.4601020000000 1.0
C      1  0.5158000000000  0.5398980000000  0.5541780000000 1.0
C      1  0.4842000000000  0.5398980000000  0.4458220000000 1.0
C      1  0.5158000000000  0.4601020000000  0.4458220000000 1.0
C      1  0.4861020000000  0.5782680000000  0.4766300000000 1.0
C      1  0.5782680000000  0.4766300000000  0.4861020000000 1.0
C      1  0.4766300000000  0.4861020000000  0.5782680000000 1.0
C      1  0.5138980000000  0.4217320000000  0.4766300000000 1.0
C      1  0.4861020000000  0.4217320000000  0.5233700000000 1.0
C      1  0.5138980000000  0.5782680000000  0.5233700000000 1.0
C      1  0.4217320000000  0.5233700000000  0.4861020000000 1.0
C      1  0.5782680000000  0.5233700000000  0.5138980000000 1.0
C      1  0.4217320000000  0.4766300000000  0.5138980000000 1.0
C      1  0.5233700000000  0.5138980000000  0.5782680000000 1.0
C      1  0.4766300000000  0.5138980000000  0.4217320000000 1.0
C      1  0.5233700000000  0.4861020000000  0.4217320000000 1.0
C      1  0.4861020000000  0.5782680000000  0.5233700000000 1.0
C      1  0.5782680000000  0.4766300000000  0.5138980000000 1.0
C      1  0.4766300000000  0.4861020000000  0.4217320000000 1.0
C      1  0.5138980000000  0.4217320000000  0.5233700000000 1.0
C      1  0.4861020000000  0.4217320000000  0.4766300000000 1.0
C      1  0.5138980000000  0.5782680000000  0.4766300000000 1.0
C      1  0.4217320000000  0.5233700000000  0.5138980000000 1.0
C      1  0.5782680000000  0.5233700000000  0.4861020000000 1.0
C      1  0.4217320000000  0.4766300000000  0.4861020000000 1.0
C      1  0.5233700000000  0.5138980000000  0.4217320000000 1.0
C      1  0.4766300000000  0.5138980000000  0.5782680000000 1.0
C      1  0.5233700000000  0.4861020000000  0.5782680000000 1.0
C      1  0.4827540000000  0.5324510000000  0.5072590000000 1.0
C      1  0.5324510000000  0.5072590000000  0.4827540000000 1.0
C      1  0.5072590000000  0.4827540000000  0.5324510000000 1.0
C      1  0.5172460000000  0.4675490000000  0.5072590000000 1.0
C      1  0.4827540000000  0.4675490000000  0.4927410000000 1.0
C      1  0.5172460000000  0.5324510000000  0.4927410000000 1.0
C      1  0.4675490000000  0.4927410000000  0.4827540000000 1.0
C      1  0.5324510000000  0.4927410000000  0.5172460000000 1.0
C      1  0.4675490000000  0.5072590000000  0.5172460000000 1.0
C      1  0.4927410000000  0.5172460000000  0.5324510000000 1.0
C      1  0.5072590000000  0.5172460000000  0.4675490000000 1.0
C      1  0.4927410000000  0.4827540000000  0.4675490000000 1.0
C      1  0.4827540000000  0.5324510000000  0.4927410000000 1.0
C      1  0.5324510000000  0.5072590000000  0.5172460000000 1.0
C      1  0.5072590000000  0.4827540000000  0.4675490000000 1.0
C      1  0.5172460000000  0.4675490000000  0.4927410000000 1.0
C      1  0.4827540000000  0.4675490000000  0.5072590000000 1.0
C      1  0.5172460000000  0.5324510000000  0.5072590000000 1.0
C      1  0.4675490000000  0.4927410000000  0.5172460000000 1.0
C      1  0.5324510000000  0.4927410000000  0.4827540000000 1.0
C      1  0.4675490000000  0.5072590000000  0.4827540000000 1.0
C      1  0.4927410000000  0.5172460000000  0.4675490000000 1.0
C      1  0.5072590000000  0.5172460000000  0.5324510000000 1.0
C      1  0.4927410000000  0.4827540000000  0.5324510000000 1.0
C      1  0.4337640000000  0.5515630000000  0.5075490000000 1.0
C      1  0.5515630000000  0.5075490000000  0.4337640000000 1.0
C      1  0.5075490000000  0.4337640000000  0.5515630000000 1.0
C      1  0.5662360000000  0.4484370000000  0.5075490000000 1.0
C      1  0.4337640000000  0.4484370000000  0.4924510000000 1.0
C      1  0.5662360000000  0.5515630000000  0.4924510000000 1.0
C      1  0.4484370000000  0.4924510000000  0.4337640000000 1.0
C      1  0.5515630000000  0.4924510000000  0.5662360000000 1.0
C      1  0.4484370000000  0.5075490000000  0.5662360000000 1.0
C      1  0.4924510000000  0.5662360000000  0.5515630000000 1.0
C      1  0.5075490000000  0.5662360000000  0.4484370000000 1.0
C      1  0.4924510000000  0.4337640000000  0.4484370000000 1.0
C      1  0.4337640000000  0.5515630000000  0.4924510000000 1.0
C      1  0.5515630000000  0.5075490000000  0.5662360000000 1.0
C      1  0.5075490000000  0.4337640000000  0.4484370000000 1.0
C      1  0.5662360000000  0.4484370000000  0.4924510000000 1.0
C      1  0.4337640000000  0.4484370000000  0.5075490000000 1.0
C      1  0.5662360000000  0.5515630000000  0.5075490000000 1.0
C      1  0.4484370000000  0.4924510000000  0.5662360000000 1.0
C      1  0.5515630000000  0.4924510000000  0.4337640000000 1.0
C      1  0.4484370000000  0.5075490000000  0.4337640000000 1.0
C      1  0.4924510000000  0.5662360000000  0.4484370000000 1.0
C      1  0.5075490000000  0.5662360000000  0.5515630000000 1.0
C      1  0.4924510000000  0.4337640000000  0.5515630000000 1.0
C      1  0.5644530000000  0.5074840000000  0.5595280000000 1.0
C      1  0.5074840000000  0.5595280000000  0.5644530000000 1.0
C      1  0.5595280000000  0.5644530000000  0.5074840000000 1.0
C      1  0.4355470000000  0.4925160000000  0.5595280000000 1.0
C      1  0.5644530000000  0.4925160000000  0.4404720000000 1.0
C      1  0.4355470000000  0.5074840000000  0.4404720000000 1.0
C      1  0.4925160000000  0.4404720000000  0.5644530000000 1.0
C      1  0.5074840000000  0.4404720000000  0.4355470000000 1.0
C      1  0.4925160000000  0.5595280000000  0.4355470000000 1.0
C      1  0.4404720000000  0.4355470000000  0.5074840000000 1.0
C      1  0.5595280000000  0.4355470000000  0.4925160000000 1.0
C      1  0.4404720000000  0.5644530000000  0.4925160000000 1.0
C      1  0.5644530000000  0.5074840000000  0.4404720000000 1.0
C      1  0.5074840000000  0.5595280000000  0.4355470000000 1.0
C      1  0.5595280000000  0.5644530000000  0.4925160000000 1.0
C      1  0.4355470000000  0.4925160000000  0.4404720000000 1.0
C      1  0.5644530000000  0.4925160000000  0.5595280000000 1.0
C      1  0.4355470000000  0.5074840000000  0.5595280000000 1.0
C      1  0.4925160000000  0.4404720000000  0.4355470000000 1.0
C      1  0.5074840000000  0.4404720000000  0.5644530000000 1.0
C      1  0.4925160000000  0.5595280000000  0.5644530000000 1.0
C      1  0.4404720000000  0.4355470000000  0.4925160000000 1.0
C      1  0.5595280000000  0.4355470000000  0.5074840000000 1.0
C      1  0.4404720000000  0.5644530000000  0.5074840000000 1.0
C      1  0.5549440000000  0.4814320000000  0.4867730000000 1.0
C      1  0.4814320000000  0.4867730000000  0.5549440000000 1.0
C      1  0.4867730000000  0.5549440000000  0.4814320000000 1.0
C      1  0.4450560000000  0.5185680000000  0.4867730000000 1.0
C      1  0.5549440000000  0.5185680000000  0.5132270000000 1.0
C      1  0.4450560000000  0.4814320000000  0.5132270000000 1.0
C      1  0.5185680000000  0.5132270000000  0.5549440000000 1.0
C      1  0.4814320000000  0.5132270000000  0.4450560000000 1.0
C      1  0.5185680000000  0.4867730000000  0.4450560000000 1.0
C      1  0.5132270000000  0.4450560000000  0.4814320000000 1.0
C      1  0.4867730000000  0.4450560000000  0.5185680000000 1.0
C      1  0.5132270000000  0.5549440000000  0.5185680000000 1.0
C      1  0.5549440000000  0.4814320000000  0.5132270000000 1.0
C      1  0.4814320000000  0.4867730000000  0.4450560000000 1.0
C      1  0.4867730000000  0.5549440000000  0.5185680000000 1.0
C      1  0.4450560000000  0.5185680000000  0.5132270000000 1.0
C      1  0.5549440000000  0.5185680000000  0.4867730000000 1.0
C      1  0.4450560000000  0.4814320000000  0.4867730000000 1.0
C      1  0.5185680000000  0.5132270000000  0.4450560000000 1.0
C      1  0.4814320000000  0.5132270000000  0.5549440000000 1.0
C      1  0.5185680000000  0.4867730000000  0.5549440000000 1.0
C      1  0.5132270000000  0.4450560000000  0.5185680000000 1.0
C      1  0.4867730000000  0.4450560000000  0.4814320000000 1.0
C      1  0.5132270000000  0.5549440000000  0.4814320000000 1.0
C      1  0.5439230000000  0.4934890000000  0.4633060000000 1.0
C      1  0.4934890000000  0.4633060000000  0.5439230000000 1.0
C      1  0.4633060000000  0.5439230000000  0.4934890000000 1.0
C      1  0.4560770000000  0.5065110000000  0.4633060000000 1.0
C      1  0.5439230000000  0.5065110000000  0.5366940000000 1.0
C      1  0.4560770000000  0.4934890000000  0.5366940000000 1.0
C      1  0.5065110000000  0.5366940000000  0.5439230000000 1.0
C      1  0.4934890000000  0.5366940000000  0.4560770000000 1.0
C      1  0.5065110000000  0.4633060000000  0.4560770000000 1.0
C      1  0.5366940000000  0.4560770000000  0.4934890000000 1.0
C      1  0.4633060000000  0.4560770000000  0.5065110000000 1.0
C      1  0.5366940000000  0.5439230000000  0.5065110000000 1.0
C      1  0.5439230000000  0.4934890000000  0.5366940000000 1.0
C      1  0.4934890000000  0.4633060000000  0.4560770000000 1.0
C      1  0.4633060000000  0.5439230000000  0.5065110000000 1.0
C      1  0.4560770000000  0.5065110000000  0.5366940000000 1.0
C      1  0.5439230000000  0.5065110000000  0.4633060000000 1.0
C      1  0.4560770000000  0.4934890000000  0.4633060000000 1.0
C      1  0.5065110000000  0.5366940000000  0.4560770000000 1.0
C      1  0.4934890000000  0.5366940000000  0.5439230000000 1.0
C      1  0.5065110000000  0.4633060000000  0.5439230000000 1.0
C      1  0.5366940000000  0.4560770000000  0.5065110000000 1.0
C      1  0.4633060000000  0.4560770000000  0.4934890000000 1.0
C      1  0.5366940000000  0.5439230000000  0.4934890000000 1.0
C      1  0.4406180000000  0.4796890000000  0.4727210000000 1.0
C      1  0.4796890000000  0.4727210000000  0.4406180000000 1.0
C      1  0.4727210000000  0.4406180000000  0.4796890000000 1.0
C      1  0.5593820000000  0.5203110000000  0.4727210000000 1.0
C      1  0.4406180000000  0.5203110000000  0.5272790000000 1.0
C      1  0.5593820000000  0.4796890000000  0.5272790000000 1.0
C      1  0.5203110000000  0.5272790000000  0.4406180000000 1.0
C      1  0.4796890000000  0.5272790000000  0.5593820000000 1.0
C      1  0.5203110000000  0.4727210000000  0.5593820000000 1.0
C      1  0.5272790000000  0.5593820000000  0.4796890000000 1.0
C      1  0.4727210000000  0.5593820000000  0.5203110000000 1.0
C      1  0.5272790000000  0.4406180000000  0.5203110000000 1.0
C      1  0.4406180000000  0.4796890000000  0.5272790000000 1.0
C      1  0.4796890000000  0.4727210000000  0.5593820000000 1.0
C      1  0.4727210000000  0.4406180000000  0.5203110000000 1.0
C      1  0.5593820000000  0.5203110000000  0.5272790000000 1.0
C      1  0.4406180000000  0.5203110000000  0.4727210000000 1.0
C      1  0.5593820000000  0.4796890000000  0.4727210000000 1.0
C      1  0.5203110000000  0.5272790000000  0.5593820000000 1.0
C      1  0.4796890000000  0.5272790000000  0.4406180000000 1.0
C      1  0.5203110000000  0.4727210000000  0.4406180000000 1.0
C      1  0.5272790000000  0.5593820000000  0.5203110000000 1.0
C      1  0.4727210000000  0.5593820000000  0.4796890000000 1.0
C      1  0.5272790000000  0.4406180000000  0.4796890000000 1.0
C      1  0.4549820000000  0.5254320000000  0.4521980000000 1.0
C      1  0.5254320000000  0.4521980000000  0.4549820000000 1.0
C      1  0.4521980000000  0.4549820000000  0.5254320000000 1.0
C      1  0.5450180000000  0.4745680000000  0.4521980000000 1.0
C      1  0.4549820000000  0.4745680000000  0.5478020000000 1.0
C      1  0.5450180000000  0.5254320000000  0.5478020000000 1.0
C      1  0.4745680000000  0.5478020000000  0.4549820000000 1.0
C      1  0.5254320000000  0.5478020000000  0.5450180000000 1.0
C      1  0.4745680000000  0.4521980000000  0.5450180000000 1.0
C      1  0.5478020000000  0.5450180000000  0.5254320000000 1.0
C      1  0.4521980000000  0.5450180000000  0.4745680000000 1.0
C      1  0.5478020000000  0.4549820000000  0.4745680000000 1.0
C      1  0.4549820000000  0.5254320000000  0.5478020000000 1.0
C      1  0.5254320000000  0.4521980000000  0.5450180000000 1.0
C      1  0.4521980000000  0.4549820000000  0.4745680000000 1.0
C      1  0.5450180000000  0.4745680000000  0.5478020000000 1.0
C      1  0.4549820000000  0.4745680000000  0.4521980000000 1.0
C      1  0.5450180000000  0.5254320000000  0.4521980000000 1.0
C      1  0.4745680000000  0.5478020000000  0.5450180000000 1.0
C      1  0.5254320000000  0.5478020000000  0.4549820000000 1.0
C      1  0.4745680000000  0.4521980000000  0.4549820000000 1.0
C      1  0.5478020000000  0.5450180000000  0.4745680000000 1.0
C      1  0.4521980000000  0.5450180000000  0.5254320000000 1.0
C      1  0.5478020000000  0.4549820000000  0.5254320000000 1.0
C      1  0.5344180000000  0.5258200000000  0.5372760000000 1.0
C      1  0.5258200000000  0.5372760000000  0.5344180000000 1.0
C      1  0.5372760000000  0.5344180000000  0.5258200000000 1.0
C      1  0.4655820000000  0.4741800000000  0.5372760000000 1.0
C      1  0.5344180000000  0.4741800000000  0.4627240000000 1.0
C      1  0.4655820000000  0.5258200000000  0.4627240000000 1.0
C      1  0.4741800000000  0.4627240000000  0.5344180000000 1.0
C      1  0.5258200000000  0.4627240000000  0.4655820000000 1.0
C      1  0.4741800000000  0.5372760000000  0.4655820000000 1.0
C      1  0.4627240000000  0.4655820000000  0.5258200000000 1.0
C      1  0.5372760000000  0.4655820000000  0.4741800000000 1.0
C      1  0.4627240000000  0.5344180000000  0.4741800000000 1.0
C      1  0.5344180000000  0.5258200000000  0.4627240000000 1.0
C      1  0.5258200000000  0.5372760000000  0.4655820000000 1.0
C      1  0.5372760000000  0.5344180000000  0.4741800000000 1.0
C      1  0.4655820000000  0.4741800000000  0.4627240000000 1.0
C      1  0.5344180000000  0.4741800000000  0.5372760000000 1.0
C      1  0.4655820000000  0.5258200000000  0.5372760000000 1.0
C      1  0.4741800000000  0.4627240000000  0.4655820000000 1.0
C      1  0.5258200000000  0.4627240000000  0.5344180000000 1.0
C      1  0.4741800000000  0.5372760000000  0.5344180000000 1.0
C      1  0.4627240000000  0.4655820000000  0.4741800000000 1.0
C      1  0.5372760000000  0.4655820000000  0.5258200000000 1.0
C      1  0.4627240000000  0.5344180000000  0.5258200000000 1.0
C      1  0.4935550000000  0.5889330000000  0.5198060000000 1.0
C      1  0.5889330000000  0.5198060000000  0.4935550000000 1.0
C      1  0.5198060000000  0.4935550000000  0.5889330000000 1.0
C      1  0.5064450000000  0.4110670000000  0.5198060000000 1.0
C      1  0.4935550000000  0.4110670000000  0.4801940000000 1.0
C      1  0.5064450000000  0.5889330000000  0.4801940000000 1.0
C      1  0.4110670000000  0.4801940000000  0.4935550000000 1.0
C      1  0.5889330000000  0.4801940000000  0.5064450000000 1.0
C      1  0.4110670000000  0.5198060000000  0.5064450000000 1.0
C      1  0.4801940000000  0.5064450000000  0.5889330000000 1.0
C      1  0.5198060000000  0.5064450000000  0.4110670000000 1.0
C      1  0.4801940000000  0.4935550000000  0.4110670000000 1.0
C      1  0.4935550000000  0.5889330000000  0.4801940000000 1.0
C      1  0.5889330000000  0.5198060000000  0.5064450000000 1.0
C      1  0.5198060000000  0.4935550000000  0.4110670000000 1.0
C      1  0.5064450000000  0.4110670000000  0.4801940000000 1.0
C      1  0.4935550000000  0.4110670000000  0.5198060000000 1.0
C      1  0.5064450000000  0.5889330000000  0.5198060000000 1.0
C      1  0.4110670000000  0.4801940000000  0.5064450000000 1.0
C      1  0.5889330000000  0.4801940000000  0.4935550000000 1.0
C      1  0.4110670000000  0.5198060000000  0.4935550000000 1.0
C      1  0.4801940000000  0.5064450000000  0.4110670000000 1.0
C      1  0.5198060000000  0.5064450000000  0.5889330000000 1.0
C      1  0.4801940000000  0.4935550000000  0.5889330000000 1.0
C      1  0.5395790000000  0.4821460000000  0.4917180000000 1.0
C      1  0.4821460000000  0.4917180000000  0.5395790000000 1.0
C      1  0.4917180000000  0.5395790000000  0.4821460000000 1.0
C      1  0.4604210000000  0.5178540000000  0.4917180000000 1.0
C      1  0.5395790000000  0.5178540000000  0.5082820000000 1.0
C      1  0.4604210000000  0.4821460000000  0.5082820000000 1.0
C      1  0.5178540000000  0.5082820000000  0.5395790000000 1.0
C      1  0.4821460000000  0.5082820000000  0.4604210000000 1.0
C      1  0.5178540000000  0.4917180000000  0.4604210000000 1.0
C      1  0.5082820000000  0.4604210000000  0.4821460000000 1.0
C      1  0.4917180000000  0.4604210000000  0.5178540000000 1.0
C      1  0.5082820000000  0.5395790000000  0.5178540000000 1.0
C      1  0.5395790000000  0.4821460000000  0.5082820000000 1.0
C      1  0.4821460000000  0.4917180000000  0.4604210000000 1.0
C      1  0.4917180000000  0.5395790000000  0.5178540000000 1.0
C      1  0.4604210000000  0.5178540000000  0.5082820000000 1.0
C      1  0.5395790000000  0.5178540000000  0.4917180000000 1.0
C      1  0.4604210000000  0.4821460000000  0.4917180000000 1.0
C      1  0.5178540000000  0.5082820000000  0.4604210000000 1.0
C      1  0.4821460000000  0.5082820000000  0.5395790000000 1.0
C      1  0.5178540000000  0.4917180000000  0.5395790000000 1.0
C      1  0.5082820000000  0.4604210000000  0.5178540000000 1.0
C      1  0.4917180000000  0.4604210000000  0.4821460000000 1.0
C      1  0.5082820000000  0.5395790000000  0.4821460000000 1.0
C      1  0.4390360000000  0.5068310000000  0.4924800000000 1.0
C      1  0.5068310000000  0.4924800000000  0.4390360000000 1.0
C      1  0.4924800000000  0.4390360000000  0.5068310000000 1.0
C      1  0.5609640000000  0.4931690000000  0.4924800000000 1.0
C      1  0.4390360000000  0.4931690000000  0.5075200000000 1.0
C      1  0.5609640000000  0.5068310000000  0.5075200000000 1.0
C      1  0.4931690000000  0.5075200000000  0.4390360000000 1.0
C      1  0.5068310000000  0.5075200000000  0.5609640000000 1.0
C      1  0.4931690000000  0.4924800000000  0.5609640000000 1.0
C      1  0.5075200000000  0.5609640000000  0.5068310000000 1.0
C      1  0.4924800000000  0.5609640000000  0.4931690000000 1.0
C      1  0.5075200000000  0.4390360000000  0.4931690000000 1.0
C      1  0.4390360000000  0.5068310000000  0.5075200000000 1.0
C      1  0.5068310000000  0.4924800000000  0.5609640000000 1.0
C      1  0.4924800000000  0.4390360000000  0.4931690000000 1.0
C      1  0.5609640000000  0.4931690000000  0.5075200000000 1.0
C      1  0.4390360000000  0.4931690000000  0.4924800000000 1.0
C      1  0.5609640000000  0.5068310000000  0.4924800000000 1.0
C      1  0.4931690000000  0.5075200000000  0.5609640000000 1.0
C      1  0.5068310000000  0.5075200000000  0.4390360000000 1.0
C      1  0.4931690000000  0.4924800000000  0.4390360000000 1.0
C      1  0.5075200000000  0.5609640000000  0.4931690000000 1.0
C      1  0.4924800000000  0.5609640000000  0.5068310000000 1.0
C      1  0.5075200000000  0.4390360000000  0.5068310000000 1.0
C      1  0.5079590000000  0.5644890000000  0.4705700000000 1.0
C      1  0.5644890000000  0.4705700000000  0.5079590000000 1.0
C      1  0.4705700000000  0.5079590000000  0.5644890000000 1.0
C      1  0.4920410000000  0.4355110000000  0.4705700000000 1.0
C      1  0.5079590000000  0.4355110000000  0.5294300000000 1.0
C      1  0.4920410000000  0.5644890000000  0.5294300000000 1.0
C      1  0.4355110000000  0.5294300000000  0.5079590000000 1.0
C      1  0.5644890000000  0.5294300000000  0.4920410000000 1.0
C      1  0.4355110000000  0.4705700000000  0.4920410000000 1.0
C      1  0.5294300000000  0.4920410000000  0.5644890000000 1.0
C      1  0.4705700000000  0.4920410000000  0.4355110000000 1.0
C      1  0.5294300000000  0.5079590000000  0.4355110000000 1.0
C      1  0.5079590000000  0.5644890000000  0.5294300000000 1.0
C      1  0.5644890000000  0.4705700000000  0.4920410000000 1.0
C      1  0.4705700000000  0.5079590000000  0.4355110000000 1.0
C      1  0.4920410000000  0.4355110000000  0.5294300000000 1.0
C      1  0.5079590000000  0.4355110000000  0.4705700000000 1.0
C      1  0.4920410000000  0.5644890000000  0.4705700000000 1.0
C      1  0.4355110000000  0.5294300000000  0.4920410000000 1.0
C      1  0.5644890000000  0.5294300000000  0.5079590000000 1.0
C      1  0.4355110000000  0.4705700000000  0.5079590000000 1.0
C      1  0.5294300000000  0.4920410000000  0.4355110000000 1.0
C      1  0.4705700000000  0.4920410000000  0.5644890000000 1.0
C      1  0.5294300000000  0.5079590000000  0.5644890000000 1.0
C      1  0.5127950000000  0.4614590000000  0.4220210000000 1.0
C      1  0.4614590000000  0.4220210000000  0.5127950000000 1.0
C      1  0.4220210000000  0.5127950000000  0.4614590000000 1.0
C      1  0.4872050000000  0.5385410000000  0.4220210000000 1.0
C      1  0.5127950000000  0.5385410000000  0.5779790000000 1.0
C      1  0.4872050000000  0.4614590000000  0.5779790000000 1.0
C      1  0.5385410000000  0.5779790000000  0.5127950000000 1.0
C      1  0.4614590000000  0.5779790000000  0.4872050000000 1.0
C      1  0.5385410000000  0.4220210000000  0.4872050000000 1.0
C      1  0.5779790000000  0.4872050000000  0.4614590000000 1.0
C      1  0.4220210000000  0.4872050000000  0.5385410000000 1.0
C      1  0.5779790000000  0.5127950000000  0.5385410000000 1.0
C      1  0.5127950000000  0.4614590000000  0.5779790000000 1.0
C      1  0.4614590000000  0.4220210000000  0.4872050000000 1.0
C      1  0.4220210000000  0.5127950000000  0.5385410000000 1.0
C      1  0.4872050000000  0.5385410000000  0.5779790000000 1.0
C      1  0.5127950000000  0.5385410000000  0.4220210000000 1.0
C      1  0.4872050000000  0.4614590000000  0.4220210000000 1.0
C      1  0.5385410000000  0.5779790000000  0.4872050000000 1.0
C      1  0.4614590000000  0.5779790000000  0.5127950000000 1.0
C      1  0.5385410000000  0.4220210000000  0.5127950000000 1.0
C      1  0.5779790000000  0.4872050000000  0.5385410000000 1.0
C      1  0.4220210000000  0.4872050000000  0.4614590000000 1.0
C      1  0.5779790000000  0.5127950000000  0.4614590000000 1.0
C      1  0.4606780000000  0.5488830000000  0.4479450000000 1.0
C      1  0.5488830000000  0.4479450000000  0.4606780000000 1.0
C      1  0.4479450000000  0.4606780000000  0.5488830000000 1.0
C      1  0.5393220000000  0.4511170000000  0.4479450000000 1.0
C      1  0.4606780000000  0.4511170000000  0.5520550000000 1.0
C      1  0.5393220000000  0.5488830000000  0.5520550000000 1.0
C      1  0.4511170000000  0.5520550000000  0.4606780000000 1.0
C      1  0.5488830000000  0.5520550000000  0.5393220000000 1.0
C      1  0.4511170000000  0.4479450000000  0.5393220000000 1.0
C      1  0.5520550000000  0.5393220000000  0.5488830000000 1.0
C      1  0.4479450000000  0.5393220000000  0.4511170000000 1.0
C      1  0.5520550000000  0.4606780000000  0.4511170000000 1.0
C      1  0.4606780000000  0.5488830000000  0.5520550000000 1.0
C      1  0.5488830000000  0.4479450000000  0.5393220000000 1.0
C      1  0.4479450000000  0.4606780000000  0.4511170000000 1.0
C      1  0.5393220000000  0.4511170000000  0.5520550000000 1.0
C      1  0.4606780000000  0.4511170000000  0.4479450000000 1.0
C      1  0.5393220000000  0.5488830000000  0.4479450000000 1.0
C      1  0.4511170000000  0.5520550000000  0.5393220000000 1.0
C      1  0.5488830000000  0.5520550000000  0.4606780000000 1.0
C      1  0.4511170000000  0.4479450000000  0.4606780000000 1.0
C      1  0.5520550000000  0.5393220000000  0.4511170000000 1.0
C      1  0.4479450000000  0.5393220000000  0.5488830000000 1.0
C      1  0.5520550000000  0.4606780000000  0.5488830000000 1.0
C      1  0.4688630000000  0.5122450000000  0.5323410000000 1.0
C      1  0.5122450000000  0.5323410000000  0.4688630000000 1.0
C      1  0.5323410000000  0.4688630000000  0.5122450000000 1.0
C      1  0.5311370000000  0.4877550000000  0.5323410000000 1.0
C      1  0.4688630000000  0.4877550000000  0.4676590000000 1.0
C      1  0.5311370000000  0.5122450000000  0.4676590000000 1.0
C      1  0.4877550000000  0.4676590000000  0.4688630000000 1.0
C      1  0.5122450000000  0.4676590000000  0.5311370000000 1.0
C      1  0.4877550000000  0.5323410000000  0.5311370000000 1.0
C      1  0.4676590000000  0.5311370000000  0.5122450000000 1.0
C      1  0.5323410000000  0.5311370000000  0.4877550000000 1.0
C      1  0.4676590000000  0.4688630000000  0.4877550000000 1.0
C      1  0.4688630000000  0.5122450000000  0.4676590000000 1.0
C      1  0.5122450000000  0.5323410000000  0.5311370000000 1.0
C      1  0.5323410000000  0.4688630000000  0.4877550000000 1.0
C      1  0.5311370000000  0.4877550000000  0.4676590000000 1.0
C      1  0.4688630000000  0.4877550000000  0.5323410000000 1.0
C      1  0.5311370000000  0.5122450000000  0.5323410000000 1.0
C      1  0.4877550000000  0.4676590000000  0.5311370000000 1.0
C      1  0.5122450000000  0.4676590000000  0.4688630000000 1.0
C      1  0.4877550000000  0.5323410000000  0.4688630000000 1.0
C      1  0.4676590000000  0.5311370000000  0.4877550000000 1.0
C      1  0.5323410000000  0.5311370000000  0.5122450000000 1.0
C      1  0.4676590000000  0.4688630000000  0.5122450000000 1.0
C      1  0.5000000000000  0.5374140000000  0.4174630000000 1.0
C      1  0.5000000000000  0.4625860000000  0.5825370000000 1.0
C      1  0.5374140000000  0.4174630000000  0.5000000000000 1.0
C      1  0.4174630000000  0.5000000000000  0.5374140000000 1.0
C      1  0.4625860000000  0.5825370000000  0.5000000000000 1.0
C      1  0.5374140000000  0.5825370000000  0.5000000000000 1.0
C      1  0.4625860000000  0.4174630000000  0.5000000000000 1.0
C      1  0.5825370000000  0.5000000000000  0.5374140000000 1.0
C      1  0.4174630000000  0.5000000000000  0.4625860000000 1.0
C      1  0.5825370000000  0.5000000000000  0.4625860000000 1.0
C      1  0.5000000000000  0.4625860000000  0.4174630000000 1.0
C      1  0.5000000000000  0.5374140000000  0.5825370000000 1.0
END
