TITL C-1887016-2763-66 1.29023476337089e-06 1000000 -4294.25446707395 0 0 600 (Td) n - 1
REM
REM in /nfs/bkarasulu/CARBON/AIRSS/Generating-Clusters/GAP-ML-2020/Higher-Symm/Selected-Sizes/TryA-Only_Ih-Symm/Larger-Clusters
REM
REM
REM
REM
REM
REM ./C.cell (2cf5181f0f1d4d5b12b972d32ad12063)
REM
REM compiler GCC version 9.2.1 20190827 (Red Hat 9.2.1-1)
REM options -cpp -mtune=generic -march=x86-64 -g -O0 -fpre-include=/usr/include/finclude/math-vector-fortran.h
REM seed -924264199 1526933314 -18982187 220460540 -1855214332 -1703288291 1753509099 351253957 -633063346 -964953123 1878749962 89022781 6530111 -804783634 74392659 1475658726 -953756374 1968185522 518973055 1306982004 -181377460 1007177686 618421972 -1554037685 -799383431 230529157 1432082693 -118723013 -1360040259 256788539 -1530459814 165604331 -1578514702
REM
CELL 1.54180  100.00000  100.00000  100.00000   90.00000   90.00000   90.00000
LATT -1
SFAC C  
C      1  0.5451870000000  0.4730240000000  0.5647550000000 1.0
C      1  0.5647550000000  0.5451870000000  0.4730240000000 1.0
C      1  0.4730240000000  0.5647550000000  0.5451870000000 1.0
C      1  0.4548130000000  0.4730240000000  0.4352450000000 1.0
C      1  0.5451870000000  0.5269760000000  0.4352450000000 1.0
C      1  0.4548130000000  0.5269760000000  0.5647550000000 1.0
C      1  0.4352450000000  0.5451870000000  0.5269760000000 1.0
C      1  0.5647550000000  0.4548130000000  0.5269760000000 1.0
C      1  0.4352450000000  0.4548130000000  0.4730240000000 1.0
C      1  0.5269760000000  0.5647550000000  0.4548130000000 1.0
C      1  0.4730240000000  0.4352450000000  0.4548130000000 1.0
C      1  0.5269760000000  0.4352450000000  0.5451870000000 1.0
C      1  0.5647550000000  0.4730240000000  0.5451870000000 1.0
C      1  0.4730240000000  0.5451870000000  0.5647550000000 1.0
C      1  0.5451870000000  0.5647550000000  0.4730240000000 1.0
C      1  0.4352450000000  0.4730240000000  0.4548130000000 1.0
C      1  0.4352450000000  0.5269760000000  0.5451870000000 1.0
C      1  0.5647550000000  0.5269760000000  0.4548130000000 1.0
C      1  0.5269760000000  0.5451870000000  0.4352450000000 1.0
C      1  0.5269760000000  0.4548130000000  0.5647550000000 1.0
C      1  0.4730240000000  0.4548130000000  0.4352450000000 1.0
C      1  0.4548130000000  0.5647550000000  0.5269760000000 1.0
C      1  0.4548130000000  0.4352450000000  0.4730240000000 1.0
C      1  0.5451870000000  0.4352450000000  0.5269760000000 1.0
C      1  0.4503720000000  0.4741620000000  0.4622870000000 1.0
C      1  0.4622870000000  0.4503720000000  0.4741620000000 1.0
C      1  0.4741620000000  0.4622870000000  0.4503720000000 1.0
C      1  0.5496280000000  0.4741620000000  0.5377130000000 1.0
C      1  0.4503720000000  0.5258380000000  0.5377130000000 1.0
C      1  0.5496280000000  0.5258380000000  0.4622870000000 1.0
C      1  0.5377130000000  0.4503720000000  0.5258380000000 1.0
C      1  0.4622870000000  0.5496280000000  0.5258380000000 1.0
C      1  0.5377130000000  0.5496280000000  0.4741620000000 1.0
C      1  0.5258380000000  0.4622870000000  0.5496280000000 1.0
C      1  0.4741620000000  0.5377130000000  0.5496280000000 1.0
C      1  0.5258380000000  0.5377130000000  0.4503720000000 1.0
C      1  0.4622870000000  0.4741620000000  0.4503720000000 1.0
C      1  0.4741620000000  0.4503720000000  0.4622870000000 1.0
C      1  0.4503720000000  0.4622870000000  0.4741620000000 1.0
C      1  0.5377130000000  0.4741620000000  0.5496280000000 1.0
C      1  0.5377130000000  0.5258380000000  0.4503720000000 1.0
C      1  0.4622870000000  0.5258380000000  0.5496280000000 1.0
C      1  0.5258380000000  0.4503720000000  0.5377130000000 1.0
C      1  0.5258380000000  0.5496280000000  0.4622870000000 1.0
C      1  0.4741620000000  0.5496280000000  0.5377130000000 1.0
C      1  0.5496280000000  0.4622870000000  0.5258380000000 1.0
C      1  0.5496280000000  0.5377130000000  0.4741620000000 1.0
C      1  0.4503720000000  0.5377130000000  0.5258380000000 1.0
C      1  0.5396000000000  0.5014310000000  0.5508840000000 1.0
C      1  0.5508840000000  0.5396000000000  0.5014310000000 1.0
C      1  0.5014310000000  0.5508840000000  0.5396000000000 1.0
C      1  0.4604000000000  0.5014310000000  0.4491160000000 1.0
C      1  0.5396000000000  0.4985690000000  0.4491160000000 1.0
C      1  0.4604000000000  0.4985690000000  0.5508840000000 1.0
C      1  0.4491160000000  0.5396000000000  0.4985690000000 1.0
C      1  0.5508840000000  0.4604000000000  0.4985690000000 1.0
C      1  0.4491160000000  0.4604000000000  0.5014310000000 1.0
C      1  0.4985690000000  0.5508840000000  0.4604000000000 1.0
C      1  0.5014310000000  0.4491160000000  0.4604000000000 1.0
C      1  0.4985690000000  0.4491160000000  0.5396000000000 1.0
C      1  0.5508840000000  0.5014310000000  0.5396000000000 1.0
C      1  0.5014310000000  0.5396000000000  0.5508840000000 1.0
C      1  0.5396000000000  0.5508840000000  0.5014310000000 1.0
C      1  0.4491160000000  0.5014310000000  0.4604000000000 1.0
C      1  0.4491160000000  0.4985690000000  0.5396000000000 1.0
C      1  0.5508840000000  0.4985690000000  0.4604000000000 1.0
C      1  0.4985690000000  0.5396000000000  0.4491160000000 1.0
C      1  0.4985690000000  0.4604000000000  0.5508840000000 1.0
C      1  0.5014310000000  0.4604000000000  0.4491160000000 1.0
C      1  0.4604000000000  0.5508840000000  0.4985690000000 1.0
C      1  0.4604000000000  0.4491160000000  0.5014310000000 1.0
C      1  0.5396000000000  0.4491160000000  0.4985690000000 1.0
C      1  0.4892560000000  0.4787150000000  0.4999940000000 1.0
C      1  0.4999940000000  0.4892560000000  0.4787150000000 1.0
C      1  0.4787150000000  0.4999940000000  0.4892560000000 1.0
C      1  0.5107440000000  0.4787150000000  0.5000060000000 1.0
C      1  0.4892560000000  0.5212850000000  0.5000060000000 1.0
C      1  0.5107440000000  0.5212850000000  0.4999940000000 1.0
C      1  0.5000060000000  0.4892560000000  0.5212850000000 1.0
C      1  0.4999940000000  0.5107440000000  0.5212850000000 1.0
C      1  0.5000060000000  0.5107440000000  0.4787150000000 1.0
C      1  0.5212850000000  0.4999940000000  0.5107440000000 1.0
C      1  0.4787150000000  0.5000060000000  0.5107440000000 1.0
C      1  0.5212850000000  0.5000060000000  0.4892560000000 1.0
C      1  0.4999940000000  0.4787150000000  0.4892560000000 1.0
C      1  0.4787150000000  0.4892560000000  0.4999940000000 1.0
C      1  0.4892560000000  0.4999940000000  0.4787150000000 1.0
C      1  0.5000060000000  0.4787150000000  0.5107440000000 1.0
C      1  0.5000060000000  0.5212850000000  0.4892560000000 1.0
C      1  0.4999940000000  0.5212850000000  0.5107440000000 1.0
C      1  0.5212850000000  0.4892560000000  0.5000060000000 1.0
C      1  0.5212850000000  0.5107440000000  0.4999940000000 1.0
C      1  0.4787150000000  0.5107440000000  0.5000060000000 1.0
C      1  0.5107440000000  0.4999940000000  0.5212850000000 1.0
C      1  0.5107440000000  0.5000060000000  0.4787150000000 1.0
C      1  0.4892560000000  0.5000060000000  0.5212850000000 1.0
C      1  0.5131240000000  0.5354910000000  0.4754000000000 1.0
C      1  0.4754000000000  0.5131240000000  0.5354910000000 1.0
C      1  0.5354910000000  0.4754000000000  0.5131240000000 1.0
C      1  0.4868760000000  0.5354910000000  0.5246000000000 1.0
C      1  0.5131240000000  0.4645090000000  0.5246000000000 1.0
C      1  0.4868760000000  0.4645090000000  0.4754000000000 1.0
C      1  0.5246000000000  0.5131240000000  0.4645090000000 1.0
C      1  0.4754000000000  0.4868760000000  0.4645090000000 1.0
C      1  0.5246000000000  0.4868760000000  0.5354910000000 1.0
C      1  0.4645090000000  0.4754000000000  0.4868760000000 1.0
C      1  0.5354910000000  0.5246000000000  0.4868760000000 1.0
C      1  0.4645090000000  0.5246000000000  0.5131240000000 1.0
C      1  0.4754000000000  0.5354910000000  0.5131240000000 1.0
C      1  0.5354910000000  0.5131240000000  0.4754000000000 1.0
C      1  0.5131240000000  0.4754000000000  0.5354910000000 1.0
C      1  0.5246000000000  0.5354910000000  0.4868760000000 1.0
C      1  0.5246000000000  0.4645090000000  0.5131240000000 1.0
C      1  0.4754000000000  0.4645090000000  0.4868760000000 1.0
C      1  0.4645090000000  0.5131240000000  0.5246000000000 1.0
C      1  0.4645090000000  0.4868760000000  0.4754000000000 1.0
C      1  0.5354910000000  0.4868760000000  0.5246000000000 1.0
C      1  0.4868760000000  0.4754000000000  0.4645090000000 1.0
C      1  0.4868760000000  0.5246000000000  0.5354910000000 1.0
C      1  0.5131240000000  0.5246000000000  0.4645090000000 1.0
C      1  0.4507930000000  0.4618460000000  0.5269430000000 1.0
C      1  0.5269430000000  0.4507930000000  0.4618460000000 1.0
C      1  0.4618460000000  0.5269430000000  0.4507930000000 1.0
C      1  0.5492070000000  0.4618460000000  0.4730570000000 1.0
C      1  0.4507930000000  0.5381540000000  0.4730570000000 1.0
C      1  0.5492070000000  0.5381540000000  0.5269430000000 1.0
C      1  0.4730570000000  0.4507930000000  0.5381540000000 1.0
C      1  0.5269430000000  0.5492070000000  0.5381540000000 1.0
C      1  0.4730570000000  0.5492070000000  0.4618460000000 1.0
C      1  0.5381540000000  0.5269430000000  0.5492070000000 1.0
C      1  0.4618460000000  0.4730570000000  0.5492070000000 1.0
C      1  0.5381540000000  0.4730570000000  0.4507930000000 1.0
C      1  0.5269430000000  0.4618460000000  0.4507930000000 1.0
C      1  0.4618460000000  0.4507930000000  0.5269430000000 1.0
C      1  0.4507930000000  0.5269430000000  0.4618460000000 1.0
C      1  0.4730570000000  0.4618460000000  0.5492070000000 1.0
C      1  0.4730570000000  0.5381540000000  0.4507930000000 1.0
C      1  0.5269430000000  0.5381540000000  0.5492070000000 1.0
C      1  0.5381540000000  0.4507930000000  0.4730570000000 1.0
C      1  0.5381540000000  0.5492070000000  0.5269430000000 1.0
C      1  0.4618460000000  0.5492070000000  0.4730570000000 1.0
C      1  0.5492070000000  0.5269430000000  0.5381540000000 1.0
C      1  0.5492070000000  0.4730570000000  0.4618460000000 1.0
C      1  0.4507930000000  0.4730570000000  0.5381540000000 1.0
C      1  0.5172750000000  0.4597040000000  0.4294150000000 1.0
C      1  0.4294150000000  0.5172750000000  0.4597040000000 1.0
C      1  0.4597040000000  0.4294150000000  0.5172750000000 1.0
C      1  0.4827250000000  0.4597040000000  0.5705850000000 1.0
C      1  0.5172750000000  0.5402960000000  0.5705850000000 1.0
C      1  0.4827250000000  0.5402960000000  0.4294150000000 1.0
C      1  0.5705850000000  0.5172750000000  0.5402960000000 1.0
C      1  0.4294150000000  0.4827250000000  0.5402960000000 1.0
C      1  0.5705850000000  0.4827250000000  0.4597040000000 1.0
C      1  0.5402960000000  0.4294150000000  0.4827250000000 1.0
C      1  0.4597040000000  0.5705850000000  0.4827250000000 1.0
C      1  0.5402960000000  0.5705850000000  0.5172750000000 1.0
C      1  0.4294150000000  0.4597040000000  0.5172750000000 1.0
C      1  0.4597040000000  0.5172750000000  0.4294150000000 1.0
C      1  0.5172750000000  0.4294150000000  0.4597040000000 1.0
C      1  0.5705850000000  0.4597040000000  0.4827250000000 1.0
C      1  0.5705850000000  0.5402960000000  0.5172750000000 1.0
C      1  0.4294150000000  0.5402960000000  0.4827250000000 1.0
C      1  0.5402960000000  0.5172750000000  0.5705850000000 1.0
C      1  0.5402960000000  0.4827250000000  0.4294150000000 1.0
C      1  0.4597040000000  0.4827250000000  0.5705850000000 1.0
C      1  0.4827250000000  0.4294150000000  0.5402960000000 1.0
C      1  0.4827250000000  0.5705850000000  0.4597040000000 1.0
C      1  0.5172750000000  0.5705850000000  0.5402960000000 1.0
C      1  0.4649430000000  0.4867880000000  0.5243300000000 1.0
C      1  0.5243300000000  0.4649430000000  0.4867880000000 1.0
C      1  0.4867880000000  0.5243300000000  0.4649430000000 1.0
C      1  0.5350570000000  0.4867880000000  0.4756700000000 1.0
C      1  0.4649430000000  0.5132120000000  0.4756700000000 1.0
C      1  0.5350570000000  0.5132120000000  0.5243300000000 1.0
C      1  0.4756700000000  0.4649430000000  0.5132120000000 1.0
C      1  0.5243300000000  0.5350570000000  0.5132120000000 1.0
C      1  0.4756700000000  0.5350570000000  0.4867880000000 1.0
C      1  0.5132120000000  0.5243300000000  0.5350570000000 1.0
C      1  0.4867880000000  0.4756700000000  0.5350570000000 1.0
C      1  0.5132120000000  0.4756700000000  0.4649430000000 1.0
C      1  0.5243300000000  0.4867880000000  0.4649430000000 1.0
C      1  0.4867880000000  0.4649430000000  0.5243300000000 1.0
C      1  0.4649430000000  0.5243300000000  0.4867880000000 1.0
C      1  0.4756700000000  0.4867880000000  0.5350570000000 1.0
C      1  0.4756700000000  0.5132120000000  0.4649430000000 1.0
C      1  0.5243300000000  0.5132120000000  0.5350570000000 1.0
C      1  0.5132120000000  0.4649430000000  0.4756700000000 1.0
C      1  0.5132120000000  0.5350570000000  0.5243300000000 1.0
C      1  0.4867880000000  0.5350570000000  0.4756700000000 1.0
C      1  0.5350570000000  0.5243300000000  0.5132120000000 1.0
C      1  0.5350570000000  0.4756700000000  0.4867880000000 1.0
C      1  0.4649430000000  0.4756700000000  0.5132120000000 1.0
C      1  0.5106530000000  0.4999900000000  0.5821820000000 1.0
C      1  0.5821820000000  0.5106530000000  0.4999900000000 1.0
C      1  0.4999900000000  0.5821820000000  0.5106530000000 1.0
C      1  0.4893470000000  0.4999900000000  0.4178180000000 1.0
C      1  0.5106530000000  0.5000100000000  0.4178180000000 1.0
C      1  0.4893470000000  0.5000100000000  0.5821820000000 1.0
C      1  0.4178180000000  0.5106530000000  0.5000100000000 1.0
C      1  0.5821820000000  0.4893470000000  0.5000100000000 1.0
C      1  0.4178180000000  0.4893470000000  0.4999900000000 1.0
C      1  0.5000100000000  0.5821820000000  0.4893470000000 1.0
C      1  0.4999900000000  0.4178180000000  0.4893470000000 1.0
C      1  0.5000100000000  0.4178180000000  0.5106530000000 1.0
C      1  0.5821820000000  0.4999900000000  0.5106530000000 1.0
C      1  0.4999900000000  0.5106530000000  0.5821820000000 1.0
C      1  0.5106530000000  0.5821820000000  0.4999900000000 1.0
C      1  0.4178180000000  0.4999900000000  0.4893470000000 1.0
C      1  0.4178180000000  0.5000100000000  0.5106530000000 1.0
C      1  0.5821820000000  0.5000100000000  0.4893470000000 1.0
C      1  0.5000100000000  0.5106530000000  0.4178180000000 1.0
C      1  0.5000100000000  0.4893470000000  0.5821820000000 1.0
C      1  0.4999900000000  0.4893470000000  0.4178180000000 1.0
C      1  0.4893470000000  0.5821820000000  0.5000100000000 1.0
C      1  0.4893470000000  0.4178180000000  0.4999900000000 1.0
C      1  0.5106530000000  0.4178180000000  0.5000100000000 1.0
C      1  0.4587430000000  0.4485850000000  0.5615980000000 1.0
C      1  0.5615980000000  0.4587430000000  0.4485850000000 1.0
C      1  0.4485850000000  0.5615980000000  0.4587430000000 1.0
C      1  0.5412570000000  0.4485850000000  0.4384020000000 1.0
C      1  0.4587430000000  0.5514150000000  0.4384020000000 1.0
C      1  0.5412570000000  0.5514150000000  0.5615980000000 1.0
C      1  0.4384020000000  0.4587430000000  0.5514150000000 1.0
C      1  0.5615980000000  0.5412570000000  0.5514150000000 1.0
C      1  0.4384020000000  0.5412570000000  0.4485850000000 1.0
C      1  0.5514150000000  0.5615980000000  0.5412570000000 1.0
C      1  0.4485850000000  0.4384020000000  0.5412570000000 1.0
C      1  0.5514150000000  0.4384020000000  0.4587430000000 1.0
C      1  0.5615980000000  0.4485850000000  0.4587430000000 1.0
C      1  0.4485850000000  0.4587430000000  0.5615980000000 1.0
C      1  0.4587430000000  0.5615980000000  0.4485850000000 1.0
C      1  0.4384020000000  0.4485850000000  0.5412570000000 1.0
C      1  0.4384020000000  0.5514150000000  0.4587430000000 1.0
C      1  0.5615980000000  0.5514150000000  0.5412570000000 1.0
C      1  0.5514150000000  0.4587430000000  0.4384020000000 1.0
C      1  0.5514150000000  0.5412570000000  0.5615980000000 1.0
C      1  0.4485850000000  0.5412570000000  0.4384020000000 1.0
C      1  0.5412570000000  0.5615980000000  0.5514150000000 1.0
C      1  0.5412570000000  0.4384020000000  0.4485850000000 1.0
C      1  0.4587430000000  0.4384020000000  0.5514150000000 1.0
C      1  0.4925130000000  0.5584460000000  0.5186750000000 1.0
C      1  0.5186750000000  0.4925130000000  0.5584460000000 1.0
C      1  0.5584460000000  0.5186750000000  0.4925130000000 1.0
C      1  0.5074870000000  0.5584460000000  0.4813250000000 1.0
C      1  0.4925130000000  0.4415540000000  0.4813250000000 1.0
C      1  0.5074870000000  0.4415540000000  0.5186750000000 1.0
C      1  0.4813250000000  0.4925130000000  0.4415540000000 1.0
C      1  0.5186750000000  0.5074870000000  0.4415540000000 1.0
C      1  0.4813250000000  0.5074870000000  0.5584460000000 1.0
C      1  0.4415540000000  0.5186750000000  0.5074870000000 1.0
C      1  0.5584460000000  0.4813250000000  0.5074870000000 1.0
C      1  0.4415540000000  0.4813250000000  0.4925130000000 1.0
C      1  0.5186750000000  0.5584460000000  0.4925130000000 1.0
C      1  0.5584460000000  0.4925130000000  0.5186750000000 1.0
C      1  0.4925130000000  0.5186750000000  0.5584460000000 1.0
C      1  0.4813250000000  0.5584460000000  0.5074870000000 1.0
C      1  0.4813250000000  0.4415540000000  0.4925130000000 1.0
C      1  0.5186750000000  0.4415540000000  0.5074870000000 1.0
C      1  0.4415540000000  0.4925130000000  0.4813250000000 1.0
C      1  0.4415540000000  0.5074870000000  0.5186750000000 1.0
C      1  0.5584460000000  0.5074870000000  0.4813250000000 1.0
C      1  0.5074870000000  0.5186750000000  0.4415540000000 1.0
C      1  0.5074870000000  0.4813250000000  0.5584460000000 1.0
C      1  0.4925130000000  0.4813250000000  0.4415540000000 1.0
C      1  0.5153590000000  0.4274040000000  0.4742410000000 1.0
C      1  0.4742410000000  0.5153590000000  0.4274040000000 1.0
C      1  0.4274040000000  0.4742410000000  0.5153590000000 1.0
C      1  0.4846410000000  0.4274040000000  0.5257590000000 1.0
C      1  0.5153590000000  0.5725960000000  0.5257590000000 1.0
C      1  0.4846410000000  0.5725960000000  0.4742410000000 1.0
C      1  0.5257590000000  0.5153590000000  0.5725960000000 1.0
C      1  0.4742410000000  0.4846410000000  0.5725960000000 1.0
C      1  0.5257590000000  0.4846410000000  0.4274040000000 1.0
C      1  0.5725960000000  0.4742410000000  0.4846410000000 1.0
C      1  0.4274040000000  0.5257590000000  0.4846410000000 1.0
C      1  0.5725960000000  0.5257590000000  0.5153590000000 1.0
C      1  0.4742410000000  0.4274040000000  0.5153590000000 1.0
C      1  0.4274040000000  0.5153590000000  0.4742410000000 1.0
C      1  0.5153590000000  0.4742410000000  0.4274040000000 1.0
C      1  0.5257590000000  0.4274040000000  0.4846410000000 1.0
C      1  0.5257590000000  0.5725960000000  0.5153590000000 1.0
C      1  0.4742410000000  0.5725960000000  0.4846410000000 1.0
C      1  0.5725960000000  0.5153590000000  0.5257590000000 1.0
C      1  0.5725960000000  0.4846410000000  0.4742410000000 1.0
C      1  0.4274040000000  0.4846410000000  0.5257590000000 1.0
C      1  0.4846410000000  0.4742410000000  0.5725960000000 1.0
C      1  0.4846410000000  0.5257590000000  0.4274040000000 1.0
C      1  0.5153590000000  0.5257590000000  0.5725960000000 1.0
C      1  0.4199110000000  0.4889870000000  0.4706180000000 1.0
C      1  0.4706180000000  0.4199110000000  0.4889870000000 1.0
C      1  0.4889870000000  0.4706180000000  0.4199110000000 1.0
C      1  0.5800890000000  0.4889870000000  0.5293820000000 1.0
C      1  0.4199110000000  0.5110130000000  0.5293820000000 1.0
C      1  0.5800890000000  0.5110130000000  0.4706180000000 1.0
C      1  0.5293820000000  0.4199110000000  0.5110130000000 1.0
C      1  0.4706180000000  0.5800890000000  0.5110130000000 1.0
C      1  0.5293820000000  0.5800890000000  0.4889870000000 1.0
C      1  0.5110130000000  0.4706180000000  0.5800890000000 1.0
C      1  0.4889870000000  0.5293820000000  0.5800890000000 1.0
C      1  0.5110130000000  0.5293820000000  0.4199110000000 1.0
C      1  0.4706180000000  0.4889870000000  0.4199110000000 1.0
C      1  0.4889870000000  0.4199110000000  0.4706180000000 1.0
C      1  0.4199110000000  0.4706180000000  0.4889870000000 1.0
C      1  0.5293820000000  0.4889870000000  0.5800890000000 1.0
C      1  0.5293820000000  0.5110130000000  0.4199110000000 1.0
C      1  0.4706180000000  0.5110130000000  0.5800890000000 1.0
C      1  0.5110130000000  0.4199110000000  0.5293820000000 1.0
C      1  0.5110130000000  0.5800890000000  0.4706180000000 1.0
C      1  0.4889870000000  0.5800890000000  0.5293820000000 1.0
C      1  0.5800890000000  0.4706180000000  0.5110130000000 1.0
C      1  0.5800890000000  0.5293820000000  0.4889870000000 1.0
C      1  0.4199110000000  0.5293820000000  0.5110130000000 1.0
C      1  0.4505940000000  0.4692030000000  0.4881180000000 1.0
C      1  0.4881180000000  0.4505940000000  0.4692030000000 1.0
C      1  0.4692030000000  0.4881180000000  0.4505940000000 1.0
C      1  0.5494060000000  0.4692030000000  0.5118820000000 1.0
C      1  0.4505940000000  0.5307970000000  0.5118820000000 1.0
C      1  0.5494060000000  0.5307970000000  0.4881180000000 1.0
C      1  0.5118820000000  0.4505940000000  0.5307970000000 1.0
C      1  0.4881180000000  0.5494060000000  0.5307970000000 1.0
C      1  0.5118820000000  0.5494060000000  0.4692030000000 1.0
C      1  0.5307970000000  0.4881180000000  0.5494060000000 1.0
C      1  0.4692030000000  0.5118820000000  0.5494060000000 1.0
C      1  0.5307970000000  0.5118820000000  0.4505940000000 1.0
C      1  0.4881180000000  0.4692030000000  0.4505940000000 1.0
C      1  0.4692030000000  0.4505940000000  0.4881180000000 1.0
C      1  0.4505940000000  0.4881180000000  0.4692030000000 1.0
C      1  0.5118820000000  0.4692030000000  0.5494060000000 1.0
C      1  0.5118820000000  0.5307970000000  0.4505940000000 1.0
C      1  0.4881180000000  0.5307970000000  0.5494060000000 1.0
C      1  0.5307970000000  0.4505940000000  0.5118820000000 1.0
C      1  0.5307970000000  0.5494060000000  0.4881180000000 1.0
C      1  0.4692030000000  0.5494060000000  0.5118820000000 1.0
C      1  0.5494060000000  0.4881180000000  0.5307970000000 1.0
C      1  0.5494060000000  0.5118820000000  0.4692030000000 1.0
C      1  0.4505940000000  0.5118820000000  0.5307970000000 1.0
C      1  0.5105350000000  0.4518060000000  0.4997150000000 1.0
C      1  0.4997150000000  0.5105350000000  0.4518060000000 1.0
C      1  0.4518060000000  0.4997150000000  0.5105350000000 1.0
C      1  0.4894650000000  0.4518060000000  0.5002850000000 1.0
C      1  0.5105350000000  0.5481940000000  0.5002850000000 1.0
C      1  0.4894650000000  0.5481940000000  0.4997150000000 1.0
C      1  0.5002850000000  0.5105350000000  0.5481940000000 1.0
C      1  0.4997150000000  0.4894650000000  0.5481940000000 1.0
C      1  0.5002850000000  0.4894650000000  0.4518060000000 1.0
C      1  0.5481940000000  0.4997150000000  0.4894650000000 1.0
C      1  0.4518060000000  0.5002850000000  0.4894650000000 1.0
C      1  0.5481940000000  0.5002850000000  0.5105350000000 1.0
C      1  0.4997150000000  0.4518060000000  0.5105350000000 1.0
C      1  0.4518060000000  0.5105350000000  0.4997150000000 1.0
C      1  0.5105350000000  0.4997150000000  0.4518060000000 1.0
C      1  0.5002850000000  0.4518060000000  0.4894650000000 1.0
C      1  0.5002850000000  0.5481940000000  0.5105350000000 1.0
C      1  0.4997150000000  0.5481940000000  0.4894650000000 1.0
C      1  0.5481940000000  0.5105350000000  0.5002850000000 1.0
C      1  0.5481940000000  0.4894650000000  0.4997150000000 1.0
C      1  0.4518060000000  0.4894650000000  0.5002850000000 1.0
C      1  0.4894650000000  0.4997150000000  0.5481940000000 1.0
C      1  0.4894650000000  0.5002850000000  0.4518060000000 1.0
C      1  0.5105350000000  0.5002850000000  0.5481940000000 1.0
C      1  0.5746260000000  0.5337370000000  0.4760860000000 1.0
C      1  0.4760860000000  0.5746260000000  0.5337370000000 1.0
C      1  0.5337370000000  0.4760860000000  0.5746260000000 1.0
C      1  0.4253740000000  0.5337370000000  0.5239140000000 1.0
C      1  0.5746260000000  0.4662630000000  0.5239140000000 1.0
C      1  0.4253740000000  0.4662630000000  0.4760860000000 1.0
C      1  0.5239140000000  0.5746260000000  0.4662630000000 1.0
C      1  0.4760860000000  0.4253740000000  0.4662630000000 1.0
C      1  0.5239140000000  0.4253740000000  0.5337370000000 1.0
C      1  0.4662630000000  0.4760860000000  0.4253740000000 1.0
C      1  0.5337370000000  0.5239140000000  0.4253740000000 1.0
C      1  0.4662630000000  0.5239140000000  0.5746260000000 1.0
C      1  0.4760860000000  0.5337370000000  0.5746260000000 1.0
C      1  0.5337370000000  0.5746260000000  0.4760860000000 1.0
C      1  0.5746260000000  0.4760860000000  0.5337370000000 1.0
C      1  0.5239140000000  0.5337370000000  0.4253740000000 1.0
C      1  0.5239140000000  0.4662630000000  0.5746260000000 1.0
C      1  0.4760860000000  0.4662630000000  0.4253740000000 1.0
C      1  0.4662630000000  0.5746260000000  0.5239140000000 1.0
C      1  0.4662630000000  0.4253740000000  0.4760860000000 1.0
C      1  0.5337370000000  0.4253740000000  0.5239140000000 1.0
C      1  0.4253740000000  0.4760860000000  0.4662630000000 1.0
C      1  0.4253740000000  0.5239140000000  0.5337370000000 1.0
C      1  0.5746260000000  0.5239140000000  0.4662630000000 1.0
C      1  0.5096020000000  0.4803930000000  0.5904580000000 1.0
C      1  0.5904580000000  0.5096020000000  0.4803930000000 1.0
C      1  0.4803930000000  0.5904580000000  0.5096020000000 1.0
C      1  0.4903980000000  0.4803930000000  0.4095420000000 1.0
C      1  0.5096020000000  0.5196070000000  0.4095420000000 1.0
C      1  0.4903980000000  0.5196070000000  0.5904580000000 1.0
C      1  0.4095420000000  0.5096020000000  0.5196070000000 1.0
C      1  0.5904580000000  0.4903980000000  0.5196070000000 1.0
C      1  0.4095420000000  0.4903980000000  0.4803930000000 1.0
C      1  0.5196070000000  0.5904580000000  0.4903980000000 1.0
C      1  0.4803930000000  0.4095420000000  0.4903980000000 1.0
C      1  0.5196070000000  0.4095420000000  0.5096020000000 1.0
C      1  0.5904580000000  0.4803930000000  0.5096020000000 1.0
C      1  0.4803930000000  0.5096020000000  0.5904580000000 1.0
C      1  0.5096020000000  0.5904580000000  0.4803930000000 1.0
C      1  0.4095420000000  0.4803930000000  0.4903980000000 1.0
C      1  0.4095420000000  0.5196070000000  0.5096020000000 1.0
C      1  0.5904580000000  0.5196070000000  0.4903980000000 1.0
C      1  0.5196070000000  0.5096020000000  0.4095420000000 1.0
C      1  0.5196070000000  0.4903980000000  0.5904580000000 1.0
C      1  0.4803930000000  0.4903980000000  0.4095420000000 1.0
C      1  0.4903980000000  0.5904580000000  0.5196070000000 1.0
C      1  0.4903980000000  0.4095420000000  0.4803930000000 1.0
C      1  0.5096020000000  0.4095420000000  0.5196070000000 1.0
C      1  0.5407930000000  0.4492120000000  0.5610620000000 1.0
C      1  0.5610620000000  0.5407930000000  0.4492120000000 1.0
C      1  0.4492120000000  0.5610620000000  0.5407930000000 1.0
C      1  0.4592070000000  0.4492120000000  0.4389380000000 1.0
C      1  0.5407930000000  0.5507880000000  0.4389380000000 1.0
C      1  0.4592070000000  0.5507880000000  0.5610620000000 1.0
C      1  0.4389380000000  0.5407930000000  0.5507880000000 1.0
C      1  0.5610620000000  0.4592070000000  0.5507880000000 1.0
C      1  0.4389380000000  0.4592070000000  0.4492120000000 1.0
C      1  0.5507880000000  0.5610620000000  0.4592070000000 1.0
C      1  0.4492120000000  0.4389380000000  0.4592070000000 1.0
C      1  0.5507880000000  0.4389380000000  0.5407930000000 1.0
C      1  0.5610620000000  0.4492120000000  0.5407930000000 1.0
C      1  0.4492120000000  0.5407930000000  0.5610620000000 1.0
C      1  0.5407930000000  0.5610620000000  0.4492120000000 1.0
C      1  0.4389380000000  0.4492120000000  0.4592070000000 1.0
C      1  0.4389380000000  0.5507880000000  0.5407930000000 1.0
C      1  0.5610620000000  0.5507880000000  0.4592070000000 1.0
C      1  0.5507880000000  0.5407930000000  0.4389380000000 1.0
C      1  0.5507880000000  0.4592070000000  0.5610620000000 1.0
C      1  0.4492120000000  0.4592070000000  0.4389380000000 1.0
C      1  0.4592070000000  0.5610620000000  0.5507880000000 1.0
C      1  0.4592070000000  0.4389380000000  0.4492120000000 1.0
C      1  0.5407930000000  0.4389380000000  0.5507880000000 1.0
C      1  0.4951520000000  0.5652020000000  0.4543690000000 1.0
C      1  0.4543690000000  0.4951520000000  0.5652020000000 1.0
C      1  0.5652020000000  0.4543690000000  0.4951520000000 1.0
C      1  0.5048480000000  0.5652020000000  0.5456310000000 1.0
C      1  0.4951520000000  0.4347980000000  0.5456310000000 1.0
C      1  0.5048480000000  0.4347980000000  0.4543690000000 1.0
C      1  0.5456310000000  0.4951520000000  0.4347980000000 1.0
C      1  0.4543690000000  0.5048480000000  0.4347980000000 1.0
C      1  0.5456310000000  0.5048480000000  0.5652020000000 1.0
C      1  0.4347980000000  0.4543690000000  0.5048480000000 1.0
C      1  0.5652020000000  0.5456310000000  0.5048480000000 1.0
C      1  0.4347980000000  0.5456310000000  0.4951520000000 1.0
C      1  0.4543690000000  0.5652020000000  0.4951520000000 1.0
C      1  0.5652020000000  0.4951520000000  0.4543690000000 1.0
C      1  0.4951520000000  0.4543690000000  0.5652020000000 1.0
C      1  0.5456310000000  0.5652020000000  0.5048480000000 1.0
C      1  0.5456310000000  0.4347980000000  0.4951520000000 1.0
C      1  0.4543690000000  0.4347980000000  0.5048480000000 1.0
C      1  0.4347980000000  0.4951520000000  0.5456310000000 1.0
C      1  0.4347980000000  0.5048480000000  0.4543690000000 1.0
C      1  0.5652020000000  0.5048480000000  0.5456310000000 1.0
C      1  0.5048480000000  0.4543690000000  0.4347980000000 1.0
C      1  0.5048480000000  0.5456310000000  0.5652020000000 1.0
C      1  0.4951520000000  0.5456310000000  0.4347980000000 1.0
C      1  0.5137390000000  0.5479790000000  0.5313200000000 1.0
C      1  0.5313200000000  0.5137390000000  0.5479790000000 1.0
C      1  0.5479790000000  0.5313200000000  0.5137390000000 1.0
C      1  0.4862610000000  0.5479790000000  0.4686800000000 1.0
C      1  0.5137390000000  0.4520210000000  0.4686800000000 1.0
C      1  0.4862610000000  0.4520210000000  0.5313200000000 1.0
C      1  0.4686800000000  0.5137390000000  0.4520210000000 1.0
C      1  0.5313200000000  0.4862610000000  0.4520210000000 1.0
C      1  0.4686800000000  0.4862610000000  0.5479790000000 1.0
C      1  0.4520210000000  0.5313200000000  0.4862610000000 1.0
C      1  0.5479790000000  0.4686800000000  0.4862610000000 1.0
C      1  0.4520210000000  0.4686800000000  0.5137390000000 1.0
C      1  0.5313200000000  0.5479790000000  0.5137390000000 1.0
C      1  0.5479790000000  0.5137390000000  0.5313200000000 1.0
C      1  0.5137390000000  0.5313200000000  0.5479790000000 1.0
C      1  0.4686800000000  0.5479790000000  0.4862610000000 1.0
C      1  0.4686800000000  0.4520210000000  0.5137390000000 1.0
C      1  0.5313200000000  0.4520210000000  0.4862610000000 1.0
C      1  0.4520210000000  0.5137390000000  0.4686800000000 1.0
C      1  0.4520210000000  0.4862610000000  0.5313200000000 1.0
C      1  0.5479790000000  0.4862610000000  0.4686800000000 1.0
C      1  0.4862610000000  0.5313200000000  0.4520210000000 1.0
C      1  0.4862610000000  0.4686800000000  0.5479790000000 1.0
C      1  0.5137390000000  0.4686800000000  0.4520210000000 1.0
C      1  0.5628900000000  0.5448970000000  0.5282550000000 1.0
C      1  0.5282550000000  0.5628900000000  0.5448970000000 1.0
C      1  0.5448970000000  0.5282550000000  0.5628900000000 1.0
C      1  0.4371100000000  0.5448970000000  0.4717450000000 1.0
C      1  0.5628900000000  0.4551030000000  0.4717450000000 1.0
C      1  0.4371100000000  0.4551030000000  0.5282550000000 1.0
C      1  0.4717450000000  0.5628900000000  0.4551030000000 1.0
C      1  0.5282550000000  0.4371100000000  0.4551030000000 1.0
C      1  0.4717450000000  0.4371100000000  0.5448970000000 1.0
C      1  0.4551030000000  0.5282550000000  0.4371100000000 1.0
C      1  0.5448970000000  0.4717450000000  0.4371100000000 1.0
C      1  0.4551030000000  0.4717450000000  0.5628900000000 1.0
C      1  0.5282550000000  0.5448970000000  0.5628900000000 1.0
C      1  0.5448970000000  0.5628900000000  0.5282550000000 1.0
C      1  0.5628900000000  0.5282550000000  0.5448970000000 1.0
C      1  0.4717450000000  0.5448970000000  0.4371100000000 1.0
C      1  0.4717450000000  0.4551030000000  0.5628900000000 1.0
C      1  0.5282550000000  0.4551030000000  0.4371100000000 1.0
C      1  0.4551030000000  0.5628900000000  0.4717450000000 1.0
C      1  0.4551030000000  0.4371100000000  0.5282550000000 1.0
C      1  0.5448970000000  0.4371100000000  0.4717450000000 1.0
C      1  0.4371100000000  0.5282550000000  0.4551030000000 1.0
C      1  0.4371100000000  0.4717450000000  0.5448970000000 1.0
C      1  0.5628900000000  0.4717450000000  0.4551030000000 1.0
C      1  0.4430980000000  0.4966400000000  0.4326990000000 1.0
C      1  0.4326990000000  0.4430980000000  0.4966400000000 1.0
C      1  0.4966400000000  0.4326990000000  0.4430980000000 1.0
C      1  0.5569020000000  0.4966400000000  0.5673010000000 1.0
C      1  0.4430980000000  0.5033600000000  0.5673010000000 1.0
C      1  0.5569020000000  0.5033600000000  0.4326990000000 1.0
C      1  0.5673010000000  0.4430980000000  0.5033600000000 1.0
C      1  0.4326990000000  0.5569020000000  0.5033600000000 1.0
C      1  0.5673010000000  0.5569020000000  0.4966400000000 1.0
C      1  0.5033600000000  0.4326990000000  0.5569020000000 1.0
C      1  0.4966400000000  0.5673010000000  0.5569020000000 1.0
C      1  0.5033600000000  0.5673010000000  0.4430980000000 1.0
C      1  0.4326990000000  0.4966400000000  0.4430980000000 1.0
C      1  0.4966400000000  0.4430980000000  0.4326990000000 1.0
C      1  0.4430980000000  0.4326990000000  0.4966400000000 1.0
C      1  0.5673010000000  0.4966400000000  0.5569020000000 1.0
C      1  0.5673010000000  0.5033600000000  0.4430980000000 1.0
C      1  0.4326990000000  0.5033600000000  0.5569020000000 1.0
C      1  0.5033600000000  0.4430980000000  0.5673010000000 1.0
C      1  0.5033600000000  0.5569020000000  0.4326990000000 1.0
C      1  0.4966400000000  0.5569020000000  0.5673010000000 1.0
C      1  0.5569020000000  0.4326990000000  0.5033600000000 1.0
C      1  0.5569020000000  0.5673010000000  0.4966400000000 1.0
C      1  0.4430980000000  0.5673010000000  0.5033600000000 1.0
C      1  0.4821440000000  0.5664710000000  0.5563370000000 1.0
C      1  0.5563370000000  0.4821440000000  0.5664710000000 1.0
C      1  0.5664710000000  0.5563370000000  0.4821440000000 1.0
C      1  0.5178560000000  0.5664710000000  0.4436630000000 1.0
C      1  0.4821440000000  0.4335290000000  0.4436630000000 1.0
C      1  0.5178560000000  0.4335290000000  0.5563370000000 1.0
C      1  0.4436630000000  0.4821440000000  0.4335290000000 1.0
C      1  0.5563370000000  0.5178560000000  0.4335290000000 1.0
C      1  0.4436630000000  0.5178560000000  0.5664710000000 1.0
C      1  0.4335290000000  0.5563370000000  0.5178560000000 1.0
C      1  0.5664710000000  0.4436630000000  0.5178560000000 1.0
C      1  0.4335290000000  0.4436630000000  0.4821440000000 1.0
C      1  0.5563370000000  0.5664710000000  0.4821440000000 1.0
C      1  0.5664710000000  0.4821440000000  0.5563370000000 1.0
C      1  0.4821440000000  0.5563370000000  0.5664710000000 1.0
C      1  0.4436630000000  0.5664710000000  0.5178560000000 1.0
C      1  0.4436630000000  0.4335290000000  0.4821440000000 1.0
C      1  0.5563370000000  0.4335290000000  0.5178560000000 1.0
C      1  0.4335290000000  0.4821440000000  0.4436630000000 1.0
C      1  0.4335290000000  0.5178560000000  0.5563370000000 1.0
C      1  0.5664710000000  0.5178560000000  0.4436630000000 1.0
C      1  0.5178560000000  0.5563370000000  0.4335290000000 1.0
C      1  0.5178560000000  0.4436630000000  0.5664710000000 1.0
C      1  0.4821440000000  0.4436630000000  0.4335290000000 1.0
C      1  0.4825810000000  0.4999530000000  0.5347170000000 1.0
C      1  0.5347170000000  0.4825810000000  0.4999530000000 1.0
C      1  0.4999530000000  0.5347170000000  0.4825810000000 1.0
C      1  0.5174190000000  0.4999530000000  0.4652830000000 1.0
C      1  0.4825810000000  0.5000470000000  0.4652830000000 1.0
C      1  0.5174190000000  0.5000470000000  0.5347170000000 1.0
C      1  0.4652830000000  0.4825810000000  0.5000470000000 1.0
C      1  0.5347170000000  0.5174190000000  0.5000470000000 1.0
C      1  0.4652830000000  0.5174190000000  0.4999530000000 1.0
C      1  0.5000470000000  0.5347170000000  0.5174190000000 1.0
C      1  0.4999530000000  0.4652830000000  0.5174190000000 1.0
C      1  0.5000470000000  0.4652830000000  0.4825810000000 1.0
C      1  0.5347170000000  0.4999530000000  0.4825810000000 1.0
C      1  0.4999530000000  0.4825810000000  0.5347170000000 1.0
C      1  0.4825810000000  0.5347170000000  0.4999530000000 1.0
C      1  0.4652830000000  0.4999530000000  0.5174190000000 1.0
C      1  0.4652830000000  0.5000470000000  0.4825810000000 1.0
C      1  0.5347170000000  0.5000470000000  0.5174190000000 1.0
C      1  0.5000470000000  0.4825810000000  0.4652830000000 1.0
C      1  0.5000470000000  0.5174190000000  0.5347170000000 1.0
C      1  0.4999530000000  0.5174190000000  0.4652830000000 1.0
C      1  0.5174190000000  0.5347170000000  0.5000470000000 1.0
C      1  0.5174190000000  0.4652830000000  0.4999530000000 1.0
C      1  0.4825810000000  0.4652830000000  0.5000470000000 1.0
C      1  0.4281810000000  0.4997070000000  0.5219010000000 1.0
C      1  0.5219010000000  0.4281810000000  0.4997070000000 1.0
C      1  0.4997070000000  0.5219010000000  0.4281810000000 1.0
C      1  0.5718190000000  0.4997070000000  0.4780990000000 1.0
C      1  0.4281810000000  0.5002930000000  0.4780990000000 1.0
C      1  0.5718190000000  0.5002930000000  0.5219010000000 1.0
C      1  0.4780990000000  0.4281810000000  0.5002930000000 1.0
C      1  0.5219010000000  0.5718190000000  0.5002930000000 1.0
C      1  0.4780990000000  0.5718190000000  0.4997070000000 1.0
C      1  0.5002930000000  0.5219010000000  0.5718190000000 1.0
C      1  0.4997070000000  0.4780990000000  0.5718190000000 1.0
C      1  0.5002930000000  0.4780990000000  0.4281810000000 1.0
C      1  0.5219010000000  0.4997070000000  0.4281810000000 1.0
C      1  0.4997070000000  0.4281810000000  0.5219010000000 1.0
C      1  0.4281810000000  0.5219010000000  0.4997070000000 1.0
C      1  0.4780990000000  0.4997070000000  0.5718190000000 1.0
C      1  0.4780990000000  0.5002930000000  0.4281810000000 1.0
C      1  0.5219010000000  0.5002930000000  0.5718190000000 1.0
C      1  0.5002930000000  0.4281810000000  0.4780990000000 1.0
C      1  0.5002930000000  0.5718190000000  0.5219010000000 1.0
C      1  0.4997070000000  0.5718190000000  0.4780990000000 1.0
C      1  0.5718190000000  0.5219010000000  0.5002930000000 1.0
C      1  0.5718190000000  0.4780990000000  0.4997070000000 1.0
C      1  0.4281810000000  0.4780990000000  0.5002930000000 1.0
END
