TITL C-1887014-576-19 7.52356766108764e-07 1000000 -2099.15741062857 0 0 300 (Td) n - 1
REM
REM in /nfs/bkarasulu/CARBON/AIRSS/Generating-Clusters/GAP-ML-2020/Higher-Symm/Selected-Sizes/TryA-Only_Ih-Symm/Larger-Clusters
REM
REM
REM
REM
REM
REM ./C.cell (2cf5181f0f1d4d5b12b972d32ad12063)
REM
REM compiler GCC version 9.2.1 20190827 (Red Hat 9.2.1-1)
REM options -cpp -mtune=generic -march=x86-64 -g -O0 -fpre-include=/usr/include/finclude/math-vector-fortran.h
REM seed 40480582 164178008 872127683 -1120191283 -716884198 1766091568 1840864451 960737146 1984251220 -568096062 -1778119467 -281027670 -1852159536 1223441028 -2040058161 12753135 139558134 582861148 -13357239 1604801706 -1468379874 2144415112 1627893750 -1386453817 -356103894 -530466750 -913718292 1860336434 -1041011900 23934249 -335756082 -2142295362 1299775076
REM
CELL 1.54180  100.00000  100.00000  100.00000   90.00000   90.00000   90.00000
LATT -1
SFAC C  
C      1  0.4777820000000  0.5110450000000  0.5000940000000 1.0
C      1  0.5110450000000  0.5000940000000  0.4777820000000 1.0
C      1  0.5000940000000  0.4777820000000  0.5110450000000 1.0
C      1  0.5222180000000  0.5110450000000  0.4999060000000 1.0
C      1  0.5222180000000  0.4889550000000  0.5000940000000 1.0
C      1  0.4777820000000  0.4889550000000  0.4999060000000 1.0
C      1  0.4889550000000  0.5000940000000  0.5222180000000 1.0
C      1  0.4889550000000  0.4999060000000  0.4777820000000 1.0
C      1  0.5110450000000  0.4999060000000  0.5222180000000 1.0
C      1  0.4999060000000  0.4777820000000  0.4889550000000 1.0
C      1  0.4999060000000  0.5222180000000  0.5110450000000 1.0
C      1  0.5000940000000  0.5222180000000  0.4889550000000 1.0
C      1  0.5000940000000  0.5110450000000  0.4777820000000 1.0
C      1  0.4777820000000  0.5000940000000  0.5110450000000 1.0
C      1  0.5110450000000  0.4777820000000  0.5000940000000 1.0
C      1  0.4999060000000  0.5110450000000  0.5222180000000 1.0
C      1  0.5000940000000  0.4889550000000  0.5222180000000 1.0
C      1  0.4999060000000  0.4889550000000  0.4777820000000 1.0
C      1  0.5222180000000  0.5000940000000  0.4889550000000 1.0
C      1  0.4777820000000  0.4999060000000  0.4889550000000 1.0
C      1  0.5222180000000  0.4999060000000  0.5110450000000 1.0
C      1  0.4889550000000  0.4777820000000  0.4999060000000 1.0
C      1  0.5110450000000  0.5222180000000  0.4999060000000 1.0
C      1  0.4889550000000  0.5222180000000  0.5000940000000 1.0
C      1  0.5167060000000  0.4316540000000  0.5270650000000 1.0
C      1  0.4316540000000  0.5270650000000  0.5167060000000 1.0
C      1  0.5270650000000  0.5167060000000  0.4316540000000 1.0
C      1  0.4832940000000  0.4316540000000  0.4729350000000 1.0
C      1  0.4832940000000  0.5683460000000  0.5270650000000 1.0
C      1  0.5167060000000  0.5683460000000  0.4729350000000 1.0
C      1  0.5683460000000  0.5270650000000  0.4832940000000 1.0
C      1  0.5683460000000  0.4729350000000  0.5167060000000 1.0
C      1  0.4316540000000  0.4729350000000  0.4832940000000 1.0
C      1  0.4729350000000  0.5167060000000  0.5683460000000 1.0
C      1  0.4729350000000  0.4832940000000  0.4316540000000 1.0
C      1  0.5270650000000  0.4832940000000  0.5683460000000 1.0
C      1  0.5270650000000  0.4316540000000  0.5167060000000 1.0
C      1  0.5167060000000  0.5270650000000  0.4316540000000 1.0
C      1  0.4316540000000  0.5167060000000  0.5270650000000 1.0
C      1  0.4729350000000  0.4316540000000  0.4832940000000 1.0
C      1  0.5270650000000  0.5683460000000  0.4832940000000 1.0
C      1  0.4729350000000  0.5683460000000  0.5167060000000 1.0
C      1  0.4832940000000  0.5270650000000  0.5683460000000 1.0
C      1  0.5167060000000  0.4729350000000  0.5683460000000 1.0
C      1  0.4832940000000  0.4729350000000  0.4316540000000 1.0
C      1  0.5683460000000  0.5167060000000  0.4729350000000 1.0
C      1  0.4316540000000  0.4832940000000  0.4729350000000 1.0
C      1  0.5683460000000  0.4832940000000  0.5270650000000 1.0
C      1  0.5159500000000  0.5271640000000  0.5689030000000 1.0
C      1  0.5271640000000  0.5689030000000  0.5159500000000 1.0
C      1  0.5689030000000  0.5159500000000  0.5271640000000 1.0
C      1  0.4840500000000  0.5271640000000  0.4310970000000 1.0
C      1  0.4840500000000  0.4728360000000  0.5689030000000 1.0
C      1  0.5159500000000  0.4728360000000  0.4310970000000 1.0
C      1  0.4728360000000  0.5689030000000  0.4840500000000 1.0
C      1  0.4728360000000  0.4310970000000  0.5159500000000 1.0
C      1  0.5271640000000  0.4310970000000  0.4840500000000 1.0
C      1  0.4310970000000  0.5159500000000  0.4728360000000 1.0
C      1  0.4310970000000  0.4840500000000  0.5271640000000 1.0
C      1  0.5689030000000  0.4840500000000  0.4728360000000 1.0
C      1  0.5689030000000  0.5271640000000  0.5159500000000 1.0
C      1  0.5159500000000  0.5689030000000  0.5271640000000 1.0
C      1  0.5271640000000  0.5159500000000  0.5689030000000 1.0
C      1  0.4310970000000  0.5271640000000  0.4840500000000 1.0
C      1  0.5689030000000  0.4728360000000  0.4840500000000 1.0
C      1  0.4310970000000  0.4728360000000  0.5159500000000 1.0
C      1  0.4840500000000  0.5689030000000  0.4728360000000 1.0
C      1  0.5159500000000  0.4310970000000  0.4728360000000 1.0
C      1  0.4840500000000  0.4310970000000  0.5271640000000 1.0
C      1  0.4728360000000  0.5159500000000  0.4310970000000 1.0
C      1  0.5271640000000  0.4840500000000  0.4310970000000 1.0
C      1  0.4728360000000  0.4840500000000  0.5689030000000 1.0
C      1  0.5245310000000  0.5136500000000  0.5362700000000 1.0
C      1  0.5136500000000  0.5362700000000  0.5245310000000 1.0
C      1  0.5362700000000  0.5245310000000  0.5136500000000 1.0
C      1  0.4754690000000  0.5136500000000  0.4637300000000 1.0
C      1  0.4754690000000  0.4863500000000  0.5362700000000 1.0
C      1  0.5245310000000  0.4863500000000  0.4637300000000 1.0
C      1  0.4863500000000  0.5362700000000  0.4754690000000 1.0
C      1  0.4863500000000  0.4637300000000  0.5245310000000 1.0
C      1  0.5136500000000  0.4637300000000  0.4754690000000 1.0
C      1  0.4637300000000  0.5245310000000  0.4863500000000 1.0
C      1  0.4637300000000  0.4754690000000  0.5136500000000 1.0
C      1  0.5362700000000  0.4754690000000  0.4863500000000 1.0
C      1  0.5362700000000  0.5136500000000  0.5245310000000 1.0
C      1  0.5245310000000  0.5362700000000  0.5136500000000 1.0
C      1  0.5136500000000  0.5245310000000  0.5362700000000 1.0
C      1  0.4637300000000  0.5136500000000  0.4754690000000 1.0
C      1  0.5362700000000  0.4863500000000  0.4754690000000 1.0
C      1  0.4637300000000  0.4863500000000  0.5245310000000 1.0
C      1  0.4754690000000  0.5362700000000  0.4863500000000 1.0
C      1  0.5245310000000  0.4637300000000  0.4863500000000 1.0
C      1  0.4754690000000  0.4637300000000  0.5136500000000 1.0
C      1  0.4863500000000  0.5245310000000  0.4637300000000 1.0
C      1  0.5136500000000  0.4754690000000  0.4637300000000 1.0
C      1  0.4863500000000  0.4754690000000  0.5362700000000 1.0
C      1  0.4647020000000  0.4549690000000  0.4856150000000 1.0
C      1  0.4549690000000  0.4856150000000  0.4647020000000 1.0
C      1  0.4856150000000  0.4647020000000  0.4549690000000 1.0
C      1  0.5352980000000  0.4549690000000  0.5143850000000 1.0
C      1  0.5352980000000  0.5450310000000  0.4856150000000 1.0
C      1  0.4647020000000  0.5450310000000  0.5143850000000 1.0
C      1  0.5450310000000  0.4856150000000  0.5352980000000 1.0
C      1  0.5450310000000  0.5143850000000  0.4647020000000 1.0
C      1  0.4549690000000  0.5143850000000  0.5352980000000 1.0
C      1  0.5143850000000  0.4647020000000  0.5450310000000 1.0
C      1  0.5143850000000  0.5352980000000  0.4549690000000 1.0
C      1  0.4856150000000  0.5352980000000  0.5450310000000 1.0
C      1  0.4856150000000  0.4549690000000  0.4647020000000 1.0
C      1  0.4647020000000  0.4856150000000  0.4549690000000 1.0
C      1  0.4549690000000  0.4647020000000  0.4856150000000 1.0
C      1  0.5143850000000  0.4549690000000  0.5352980000000 1.0
C      1  0.4856150000000  0.5450310000000  0.5352980000000 1.0
C      1  0.5143850000000  0.5450310000000  0.4647020000000 1.0
C      1  0.5352980000000  0.4856150000000  0.5450310000000 1.0
C      1  0.4647020000000  0.5143850000000  0.5450310000000 1.0
C      1  0.5352980000000  0.5143850000000  0.4549690000000 1.0
C      1  0.5450310000000  0.4647020000000  0.5143850000000 1.0
C      1  0.4549690000000  0.5352980000000  0.5143850000000 1.0
C      1  0.5450310000000  0.5352980000000  0.4856150000000 1.0
C      1  0.4420550000000  0.4794930000000  0.4633600000000 1.0
C      1  0.4794930000000  0.4633600000000  0.4420550000000 1.0
C      1  0.4633600000000  0.4420550000000  0.4794930000000 1.0
C      1  0.5579450000000  0.4794930000000  0.5366400000000 1.0
C      1  0.5579450000000  0.5205070000000  0.4633600000000 1.0
C      1  0.4420550000000  0.5205070000000  0.5366400000000 1.0
C      1  0.5205070000000  0.4633600000000  0.5579450000000 1.0
C      1  0.5205070000000  0.5366400000000  0.4420550000000 1.0
C      1  0.4794930000000  0.5366400000000  0.5579450000000 1.0
C      1  0.5366400000000  0.4420550000000  0.5205070000000 1.0
C      1  0.5366400000000  0.5579450000000  0.4794930000000 1.0
C      1  0.4633600000000  0.5579450000000  0.5205070000000 1.0
C      1  0.4633600000000  0.4794930000000  0.4420550000000 1.0
C      1  0.4420550000000  0.4633600000000  0.4794930000000 1.0
C      1  0.4794930000000  0.4420550000000  0.4633600000000 1.0
C      1  0.5366400000000  0.4794930000000  0.5579450000000 1.0
C      1  0.4633600000000  0.5205070000000  0.5579450000000 1.0
C      1  0.5366400000000  0.5205070000000  0.4420550000000 1.0
C      1  0.5579450000000  0.4633600000000  0.5205070000000 1.0
C      1  0.4420550000000  0.5366400000000  0.5205070000000 1.0
C      1  0.5579450000000  0.5366400000000  0.4794930000000 1.0
C      1  0.5205070000000  0.4420550000000  0.5366400000000 1.0
C      1  0.4794930000000  0.5579450000000  0.5366400000000 1.0
C      1  0.5205070000000  0.5579450000000  0.4633600000000 1.0
C      1  0.5735620000000  0.5176380000000  0.4928350000000 1.0
C      1  0.5176380000000  0.4928350000000  0.5735620000000 1.0
C      1  0.4928350000000  0.5735620000000  0.5176380000000 1.0
C      1  0.4264380000000  0.5176380000000  0.5071650000000 1.0
C      1  0.4264380000000  0.4823620000000  0.4928350000000 1.0
C      1  0.5735620000000  0.4823620000000  0.5071650000000 1.0
C      1  0.4823620000000  0.4928350000000  0.4264380000000 1.0
C      1  0.4823620000000  0.5071650000000  0.5735620000000 1.0
C      1  0.5176380000000  0.5071650000000  0.4264380000000 1.0
C      1  0.5071650000000  0.5735620000000  0.4823620000000 1.0
C      1  0.5071650000000  0.4264380000000  0.5176380000000 1.0
C      1  0.4928350000000  0.4264380000000  0.4823620000000 1.0
C      1  0.4928350000000  0.5176380000000  0.5735620000000 1.0
C      1  0.5735620000000  0.4928350000000  0.5176380000000 1.0
C      1  0.5176380000000  0.5735620000000  0.4928350000000 1.0
C      1  0.5071650000000  0.5176380000000  0.4264380000000 1.0
C      1  0.4928350000000  0.4823620000000  0.4264380000000 1.0
C      1  0.5071650000000  0.4823620000000  0.5735620000000 1.0
C      1  0.4264380000000  0.4928350000000  0.4823620000000 1.0
C      1  0.5735620000000  0.5071650000000  0.4823620000000 1.0
C      1  0.4264380000000  0.5071650000000  0.5176380000000 1.0
C      1  0.4823620000000  0.5735620000000  0.5071650000000 1.0
C      1  0.5176380000000  0.4264380000000  0.5071650000000 1.0
C      1  0.4823620000000  0.4264380000000  0.4928350000000 1.0
C      1  0.4260630000000  0.4825640000000  0.5068860000000 1.0
C      1  0.4825640000000  0.5068860000000  0.4260630000000 1.0
C      1  0.5068860000000  0.4260630000000  0.4825640000000 1.0
C      1  0.5739370000000  0.4825640000000  0.4931140000000 1.0
C      1  0.5739370000000  0.5174360000000  0.5068860000000 1.0
C      1  0.4260630000000  0.5174360000000  0.4931140000000 1.0
C      1  0.5174360000000  0.5068860000000  0.5739370000000 1.0
C      1  0.5174360000000  0.4931140000000  0.4260630000000 1.0
C      1  0.4825640000000  0.4931140000000  0.5739370000000 1.0
C      1  0.4931140000000  0.4260630000000  0.5174360000000 1.0
C      1  0.4931140000000  0.5739370000000  0.4825640000000 1.0
C      1  0.5068860000000  0.5739370000000  0.5174360000000 1.0
C      1  0.5068860000000  0.4825640000000  0.4260630000000 1.0
C      1  0.4260630000000  0.5068860000000  0.4825640000000 1.0
C      1  0.4825640000000  0.4260630000000  0.5068860000000 1.0
C      1  0.4931140000000  0.4825640000000  0.5739370000000 1.0
C      1  0.5068860000000  0.5174360000000  0.5739370000000 1.0
C      1  0.4931140000000  0.5174360000000  0.4260630000000 1.0
C      1  0.5739370000000  0.5068860000000  0.5174360000000 1.0
C      1  0.4260630000000  0.4931140000000  0.5174360000000 1.0
C      1  0.5739370000000  0.4931140000000  0.4825640000000 1.0
C      1  0.5174360000000  0.4260630000000  0.4931140000000 1.0
C      1  0.4825640000000  0.5739370000000  0.4931140000000 1.0
C      1  0.5174360000000  0.5739370000000  0.5068860000000 1.0
C      1  0.4639640000000  0.4540590000000  0.5160600000000 1.0
C      1  0.4540590000000  0.5160600000000  0.4639640000000 1.0
C      1  0.5160600000000  0.4639640000000  0.4540590000000 1.0
C      1  0.5360360000000  0.4540590000000  0.4839400000000 1.0
C      1  0.5360360000000  0.5459410000000  0.5160600000000 1.0
C      1  0.4639640000000  0.5459410000000  0.4839400000000 1.0
C      1  0.5459410000000  0.5160600000000  0.5360360000000 1.0
C      1  0.5459410000000  0.4839400000000  0.4639640000000 1.0
C      1  0.4540590000000  0.4839400000000  0.5360360000000 1.0
C      1  0.4839400000000  0.4639640000000  0.5459410000000 1.0
C      1  0.4839400000000  0.5360360000000  0.4540590000000 1.0
C      1  0.5160600000000  0.5360360000000  0.5459410000000 1.0
C      1  0.5160600000000  0.4540590000000  0.4639640000000 1.0
C      1  0.4639640000000  0.5160600000000  0.4540590000000 1.0
C      1  0.4540590000000  0.4639640000000  0.5160600000000 1.0
C      1  0.4839400000000  0.4540590000000  0.5360360000000 1.0
C      1  0.5160600000000  0.5459410000000  0.5360360000000 1.0
C      1  0.4839400000000  0.5459410000000  0.4639640000000 1.0
C      1  0.5360360000000  0.5160600000000  0.5459410000000 1.0
C      1  0.4639640000000  0.4839400000000  0.5459410000000 1.0
C      1  0.5360360000000  0.4839400000000  0.4540590000000 1.0
C      1  0.5459410000000  0.4639640000000  0.4839400000000 1.0
C      1  0.4540590000000  0.5360360000000  0.4839400000000 1.0
C      1  0.5459410000000  0.5360360000000  0.5160600000000 1.0
C      1  0.4646030000000  0.4820890000000  0.5005740000000 1.0
C      1  0.4820890000000  0.5005740000000  0.4646030000000 1.0
C      1  0.5005740000000  0.4646030000000  0.4820890000000 1.0
C      1  0.5353970000000  0.4820890000000  0.4994260000000 1.0
C      1  0.5353970000000  0.5179110000000  0.5005740000000 1.0
C      1  0.4646030000000  0.5179110000000  0.4994260000000 1.0
C      1  0.5179110000000  0.5005740000000  0.5353970000000 1.0
C      1  0.5179110000000  0.4994260000000  0.4646030000000 1.0
C      1  0.4820890000000  0.4994260000000  0.5353970000000 1.0
C      1  0.4994260000000  0.4646030000000  0.5179110000000 1.0
C      1  0.4994260000000  0.5353970000000  0.4820890000000 1.0
C      1  0.5005740000000  0.5353970000000  0.5179110000000 1.0
C      1  0.5005740000000  0.4820890000000  0.4646030000000 1.0
C      1  0.4646030000000  0.5005740000000  0.4820890000000 1.0
C      1  0.4820890000000  0.4646030000000  0.5005740000000 1.0
C      1  0.4994260000000  0.4820890000000  0.5353970000000 1.0
C      1  0.5005740000000  0.5179110000000  0.5353970000000 1.0
C      1  0.4994260000000  0.5179110000000  0.4646030000000 1.0
C      1  0.5353970000000  0.5005740000000  0.5179110000000 1.0
C      1  0.4646030000000  0.4994260000000  0.5179110000000 1.0
C      1  0.5353970000000  0.4994260000000  0.4820890000000 1.0
C      1  0.5179110000000  0.4646030000000  0.4994260000000 1.0
C      1  0.4820890000000  0.5353970000000  0.4994260000000 1.0
C      1  0.5179110000000  0.5353970000000  0.5005740000000 1.0
C      1  0.5410860000000  0.5215920000000  0.4883360000000 1.0
C      1  0.5215920000000  0.4883360000000  0.5410860000000 1.0
C      1  0.4883360000000  0.5410860000000  0.5215920000000 1.0
C      1  0.4589140000000  0.5215920000000  0.5116640000000 1.0
C      1  0.4589140000000  0.4784080000000  0.4883360000000 1.0
C      1  0.5410860000000  0.4784080000000  0.5116640000000 1.0
C      1  0.4784080000000  0.4883360000000  0.4589140000000 1.0
C      1  0.4784080000000  0.5116640000000  0.5410860000000 1.0
C      1  0.5215920000000  0.5116640000000  0.4589140000000 1.0
C      1  0.5116640000000  0.5410860000000  0.4784080000000 1.0
C      1  0.5116640000000  0.4589140000000  0.5215920000000 1.0
C      1  0.4883360000000  0.4589140000000  0.4784080000000 1.0
C      1  0.4883360000000  0.5215920000000  0.5410860000000 1.0
C      1  0.5410860000000  0.4883360000000  0.5215920000000 1.0
C      1  0.5215920000000  0.5410860000000  0.4883360000000 1.0
C      1  0.5116640000000  0.5215920000000  0.4589140000000 1.0
C      1  0.4883360000000  0.4784080000000  0.4589140000000 1.0
C      1  0.5116640000000  0.4784080000000  0.5410860000000 1.0
C      1  0.4589140000000  0.4883360000000  0.4784080000000 1.0
C      1  0.5410860000000  0.5116640000000  0.4784080000000 1.0
C      1  0.4589140000000  0.5116640000000  0.5215920000000 1.0
C      1  0.4784080000000  0.5410860000000  0.5116640000000 1.0
C      1  0.5215920000000  0.4589140000000  0.5116640000000 1.0
C      1  0.4784080000000  0.4589140000000  0.4883360000000 1.0
C      1  0.5335330000000  0.5221540000000  0.5581310000000 1.0
C      1  0.5221540000000  0.5581310000000  0.5335330000000 1.0
C      1  0.5581310000000  0.5335330000000  0.5221540000000 1.0
C      1  0.4664670000000  0.5221540000000  0.4418690000000 1.0
C      1  0.4664670000000  0.4778460000000  0.5581310000000 1.0
C      1  0.5335330000000  0.4778460000000  0.4418690000000 1.0
C      1  0.4778460000000  0.5581310000000  0.4664670000000 1.0
C      1  0.4778460000000  0.4418690000000  0.5335330000000 1.0
C      1  0.5221540000000  0.4418690000000  0.4664670000000 1.0
C      1  0.4418690000000  0.5335330000000  0.4778460000000 1.0
C      1  0.4418690000000  0.4664670000000  0.5221540000000 1.0
C      1  0.5581310000000  0.4664670000000  0.4778460000000 1.0
C      1  0.5581310000000  0.5221540000000  0.5335330000000 1.0
C      1  0.5335330000000  0.5581310000000  0.5221540000000 1.0
C      1  0.5221540000000  0.5335330000000  0.5581310000000 1.0
C      1  0.4418690000000  0.5221540000000  0.4664670000000 1.0
C      1  0.5581310000000  0.4778460000000  0.4664670000000 1.0
C      1  0.4418690000000  0.4778460000000  0.5335330000000 1.0
C      1  0.4664670000000  0.5581310000000  0.4778460000000 1.0
C      1  0.5335330000000  0.4418690000000  0.4778460000000 1.0
C      1  0.4664670000000  0.4418690000000  0.5221540000000 1.0
C      1  0.4778460000000  0.5335330000000  0.4418690000000 1.0
C      1  0.5221540000000  0.4664670000000  0.4418690000000 1.0
C      1  0.4778460000000  0.4664670000000  0.5581310000000 1.0
C      1  0.5566960000000  0.4658040000000  0.5341960000000 1.0
C      1  0.5341960000000  0.5566960000000  0.4658040000000 1.0
C      1  0.5341960000000  0.4433040000000  0.5341960000000 1.0
C      1  0.5566960000000  0.5341960000000  0.4658040000000 1.0
C      1  0.4433040000000  0.5341960000000  0.5341960000000 1.0
C      1  0.5341960000000  0.4658040000000  0.5566960000000 1.0
C      1  0.4658040000000  0.5566960000000  0.5341960000000 1.0
C      1  0.4433040000000  0.4658040000000  0.4658040000000 1.0
C      1  0.4658040000000  0.5341960000000  0.5566960000000 1.0
C      1  0.5341960000000  0.5341960000000  0.4433040000000 1.0
C      1  0.4658040000000  0.4433040000000  0.4658040000000 1.0
C      1  0.4658040000000  0.4658040000000  0.4433040000000 1.0
END
