TITL C-1892083-4185-69 1.03101206394089e-06 1000000 -2771.19199380298 0 0 400 (C3) n - 1
REM
REM in /nfs/bkarasulu/CARBON/AIRSS/Generating-Clusters/GAP-ML-2020/Higher-Symm/Selected-Sizes/TryA-Only_Ih-Symm/Larger-Clusters
REM
REM
REM
REM
REM
REM ./C.cell (2cf5181f0f1d4d5b12b972d32ad12063)
REM
REM compiler GCC version 9.2.1 20190827 (Red Hat 9.2.1-1)
REM options -cpp -mtune=generic -march=x86-64 -g -O0 -fpre-include=/usr/include/finclude/math-vector-fortran.h
REM seed 266761705 -2132053400 -1965942654 288541000 1586486099 -856715066 409052899 -1599482802 37436427 -2091543182 1694963200 -2081450901 505870261 497894781 1820062364 -1679820623 2058464613 161796596 -1797626219 1009991120 -352258408 179900970 -2043383437 -454929505 -493448488 -80217228 -1670463617 -1223834077 1048957217 75232697 -1158257788 -910345141 -1875742354
REM
CELL 1.54180  100.00000  100.00000  100.00000   90.00000   90.00000   90.00000
LATT -1
SFAC C  
C      1  0.5443770000000  0.4992770000000  0.5178940000000 1.0
C      1  0.5182920000000  0.5455650000000  0.4995620000000 1.0
C      1  0.4999720000000  0.5188090000000  0.5459190000000 1.0
C      1  0.4543330000000  0.5003520000000  0.5183070000000 1.0
C      1  0.4542420000000  0.5003650000000  0.4817670000000 1.0
C      1  0.5459040000000  0.4999250000000  0.4811060000000 1.0
C      1  0.4810890000000  0.4539930000000  0.4999880000000 1.0
C      1  0.4817530000000  0.5456570000000  0.4995480000000 1.0
C      1  0.5178770000000  0.4555190000000  0.5006360000000 1.0
C      1  0.5006190000000  0.4820200000000  0.5443930000000 1.0
C      1  0.4995340000000  0.5181450000000  0.4542570000000 1.0
C      1  0.4995470000000  0.4816050000000  0.4543490000000 1.0
C      1  0.4992250000000  0.5445420000000  0.5181460000000 1.0
C      1  0.5447370000000  0.5181150000000  0.4988610000000 1.0
C      1  0.5184050000000  0.5001030000000  0.5456420000000 1.0
C      1  0.4997940000000  0.4542710000000  0.5184220000000 1.0
C      1  0.4988450000000  0.4551600000000  0.4817980000000 1.0
C      1  0.5006750000000  0.5446960000000  0.4814010000000 1.0
C      1  0.4553560000000  0.4817670000000  0.4992400000000 1.0
C      1  0.5456260000000  0.4814910000000  0.4998110000000 1.0
C      1  0.4552020000000  0.5185120000000  0.5006890000000 1.0
C      1  0.4817810000000  0.5010530000000  0.5447510000000 1.0
C      1  0.5181310000000  0.5006720000000  0.4553720000000 1.0
C      1  0.4813860000000  0.4992230000000  0.4552170000000 1.0
C      1  0.4566040000000  0.5214000000000  0.4673770000000 1.0
C      1  0.4675770000000  0.4563030000000  0.5212600000000 1.0
C      1  0.5204330000000  0.4712950000000  0.4554700000000 1.0
C      1  0.5435950000000  0.4786520000000  0.4675940000000 1.0
C      1  0.5443080000000  0.5271220000000  0.5395540000000 1.0
C      1  0.4554530000000  0.4794650000000  0.5286160000000 1.0
C      1  0.5286020000000  0.5444440000000  0.5204480000000 1.0
C      1  0.5395380000000  0.4555880000000  0.4727920000000 1.0
C      1  0.4673620000000  0.5432950000000  0.4785120000000 1.0
C      1  0.4784980000000  0.5325360000000  0.4566190000000 1.0
C      1  0.4727740000000  0.4603600000000  0.5443240000000 1.0
C      1  0.5212440000000  0.5323200000000  0.5436100000000 1.0
C      1  0.5240810000000  0.4517340000000  0.4528200000000 1.0
C      1  0.4562470000000  0.4644770000000  0.5269740000000 1.0
C      1  0.4639630000000  0.5263850000000  0.4551060000000 1.0
C      1  0.4735140000000  0.5448070000000  0.4639770000000 1.0
C      1  0.5269590000000  0.5436500000000  0.5354370000000 1.0
C      1  0.4786520000000  0.4555280000000  0.5319880000000 1.0
C      1  0.5481630000000  0.5470940000000  0.5240970000000 1.0
C      1  0.4550920000000  0.5359360000000  0.4735270000000 1.0
C      1  0.5443700000000  0.4679240000000  0.4786690000000 1.0
C      1  0.5354210000000  0.4729380000000  0.4562640000000 1.0
C      1  0.4528030000000  0.4758170000000  0.5481770000000 1.0
C      1  0.5319720000000  0.5212450000000  0.5443850000000 1.0
C      1  0.5679780000000  0.4679160000000  0.4783080000000 1.0
C      1  0.4785000000000  0.5670240000000  0.4680410000000 1.0
C      1  0.4676200000000  0.4792460000000  0.5660270000000 1.0
C      1  0.4328740000000  0.5318720000000  0.4785130000000 1.0
C      1  0.4332650000000  0.4677080000000  0.5218230000000 1.0
C      1  0.5660120000000  0.5322760000000  0.5206680000000 1.0
C      1  0.5206520000000  0.4338850000000  0.4676380000000 1.0
C      1  0.5218090000000  0.5666320000000  0.5322050000000 1.0
C      1  0.4782900000000  0.4319190000000  0.5319960000000 1.0
C      1  0.5319800000000  0.5216070000000  0.5679940000000 1.0
C      1  0.5321900000000  0.4780880000000  0.4332820000000 1.0
C      1  0.4680270000000  0.5213990000000  0.4328890000000 1.0
C      1  0.4679180000000  0.5673330000000  0.4786080000000 1.0
C      1  0.5679000000000  0.4784530000000  0.4676320000000 1.0
C      1  0.4780610000000  0.4686010000000  0.5653410000000 1.0
C      1  0.5312970000000  0.4345710000000  0.4780790000000 1.0
C      1  0.4676140000000  0.4319970000000  0.5214590000000 1.0
C      1  0.5325020000000  0.5670040000000  0.5217780000000 1.0
C      1  0.4325660000000  0.5213050000000  0.4679310000000 1.0
C      1  0.5653260000000  0.5218350000000  0.5313140000000 1.0
C      1  0.4328930000000  0.4781360000000  0.5325160000000 1.0
C      1  0.5214430000000  0.5322820000000  0.5679160000000 1.0
C      1  0.4785950000000  0.5319800000000  0.4325810000000 1.0
C      1  0.5217630000000  0.4673950000000  0.4329100000000 1.0
C      1  0.5368930000000  0.4906970000000  0.4731630000000 1.0
C      1  0.4739720000000  0.5366400000000  0.4899360000000 1.0
C      1  0.4952440000000  0.4756010000000  0.5312010000000 1.0
C      1  0.4632590000000  0.5099770000000  0.4739870000000 1.0
C      1  0.4634100000000  0.4904870000000  0.5255390000000 1.0
C      1  0.5311850000000  0.5046520000000  0.5243120000000 1.0
C      1  0.5242960000000  0.4687110000000  0.4952610000000 1.0
C      1  0.5255250000000  0.5364870000000  0.5094260000000 1.0
C      1  0.4731460000000  0.4630050000000  0.5092150000000 1.0
C      1  0.5091990000000  0.5267520000000  0.5369080000000 1.0
C      1  0.5094110000000  0.4743730000000  0.4634270000000 1.0
C      1  0.4899210000000  0.5259260000000  0.4632730000000 1.0
C      1  0.4957790000000  0.5311460000000  0.4750160000000 1.0
C      1  0.5368730000000  0.4731490000000  0.4906050000000 1.0
C      1  0.4752220000000  0.4955870000000  0.5316150000000 1.0
C      1  0.5043110000000  0.4682970000000  0.4752380000000 1.0
C      1  0.4905880000000  0.4630250000000  0.5267640000000 1.0
C      1  0.5046830000000  0.5310870000000  0.5243660000000 1.0
C      1  0.4687520000000  0.5248980000000  0.4957930000000 1.0
C      1  0.5316010000000  0.5246750000000  0.5043270000000 1.0
C      1  0.4688100000000  0.4755470000000  0.5046990000000 1.0
C      1  0.5267480000000  0.5093090000000  0.5368880000000 1.0
C      1  0.4750010000000  0.5041200000000  0.4687670000000 1.0
C      1  0.5243510000000  0.4952140000000  0.4688270000000 1.0
C      1  0.5668540000000  0.5405400000000  0.4806530000000 1.0
C      1  0.4818410000000  0.5668260000000  0.5407490000000 1.0
C      1  0.5400400000000  0.4808340000000  0.5669040000000 1.0
C      1  0.4330720000000  0.4591640000000  0.4818560000000 1.0
C      1  0.4329860000000  0.5408800000000  0.5183560000000 1.0
C      1  0.5668880000000  0.4598560000000  0.5190810000000 1.0
C      1  0.5190630000000  0.4330090000000  0.5400580000000 1.0
C      1  0.5183430000000  0.5669120000000  0.4590340000000 1.0
C      1  0.4806360000000  0.4330430000000  0.4593720000000 1.0
C      1  0.4593560000000  0.5192620000000  0.5668680000000 1.0
C      1  0.4590190000000  0.4815560000000  0.4330010000000 1.0
C      1  0.5407350000000  0.5180560000000  0.4330890000000 1.0
C      1  0.5401520000000  0.5671160000000  0.4808510000000 1.0
C      1  0.5666150000000  0.4819930000000  0.5407590000000 1.0
C      1  0.4814190000000  0.5408640000000  0.5674420000000 1.0
C      1  0.4590330000000  0.4324700000000  0.4814360000000 1.0
C      1  0.5407420000000  0.4332810000000  0.5179200000000 1.0
C      1  0.4598540000000  0.5667350000000  0.5189340000000 1.0
C      1  0.4327810000000  0.5190630000000  0.5401650000000 1.0
C      1  0.5674280000000  0.5184760000000  0.4590500000000 1.0
C      1  0.4331630000000  0.4809780000000  0.4598680000000 1.0
C      1  0.5179020000000  0.4591550000000  0.5666320000000 1.0
C      1  0.4808360000000  0.4597460000000  0.4327980000000 1.0
C      1  0.5189210000000  0.5400440000000  0.4331790000000 1.0
C      1  0.4995600000000  0.5715660000000  0.5193060000000 1.0
C      1  0.5189350000000  0.4993150000000  0.5722350000000 1.0
C      1  0.5715490000000  0.5190760000000  0.4991650000000 1.0
C      1  0.5005810000000  0.4276780000000  0.5189530000000 1.0
C      1  0.5007660000000  0.5720830000000  0.4806780000000 1.0
C      1  0.4991480000000  0.4283480000000  0.4808370000000 1.0
C      1  0.4808200000000  0.5007490000000  0.5715640000000 1.0
C      1  0.4806640000000  0.4991330000000  0.4278300000000 1.0
C      1  0.5192920000000  0.5003380000000  0.4283480000000 1.0
C      1  0.4283320000000  0.4806070000000  0.4995740000000 1.0
C      1  0.4278150000000  0.5192350000000  0.5007790000000 1.0
C      1  0.5722190000000  0.4809600000000  0.5005990000000 1.0
C      1  0.5712600000000  0.4995560000000  0.5191290000000 1.0
C      1  0.4992640000000  0.5192010000000  0.5724450000000 1.0
C      1  0.5192250000000  0.5719360000000  0.4995640000000 1.0
C      1  0.4279620000000  0.5003500000000  0.5192390000000 1.0
C      1  0.5724300000000  0.5006320000000  0.4807130000000 1.0
C      1  0.4278750000000  0.4993900000000  0.4810450000000 1.0
C      1  0.5003400000000  0.4807850000000  0.5712760000000 1.0
C      1  0.4995490000000  0.4806730000000  0.4279780000000 1.0
C      1  0.5005090000000  0.5188660000000  0.4278910000000 1.0
C      1  0.4806960000000  0.4274670000000  0.4992800000000 1.0
C      1  0.5191120000000  0.4286370000000  0.5003580000000 1.0
C      1  0.4810310000000  0.5720230000000  0.5005230000000 1.0
C      1  0.5164860000000  0.4614310000000  0.4449480000000 1.0
C      1  0.4438110000000  0.5159400000000  0.4617210000000 1.0
C      1  0.4617660000000  0.4434320000000  0.5160480000000 1.0
C      1  0.4839590000000  0.5381910000000  0.4438250000000 1.0
C      1  0.4821760000000  0.4605930000000  0.5547390000000 1.0
C      1  0.5160320000000  0.5381310000000  0.5564810000000 1.0
C      1  0.5564660000000  0.4838640000000  0.4617830000000 1.0
C      1  0.5547230000000  0.5177200000000  0.5393210000000 1.0
C      1  0.4449320000000  0.4834130000000  0.5384800000000 1.0
C      1  0.5384660000000  0.5549650000000  0.5165010000000 1.0
C      1  0.5393050000000  0.4451730000000  0.4821940000000 1.0
C      1  0.4617070000000  0.5560880000000  0.4839720000000 1.0
C      1  0.4607880000000  0.5172750000000  0.4441160000000 1.0
C      1  0.5153540000000  0.4427660000000  0.4584810000000 1.0
C      1  0.4447450000000  0.4607200000000  0.5178310000000 1.0
C      1  0.5391780000000  0.4820810000000  0.4447620000000 1.0
C      1  0.4584640000000  0.4845440000000  0.5571460000000 1.0
C      1  0.5373640000000  0.5154350000000  0.5568740000000 1.0
C      1  0.4826240000000  0.5557970000000  0.4608020000000 1.0
C      1  0.5178160000000  0.5551520000000  0.5391930000000 1.0
C      1  0.4844620000000  0.4430390000000  0.5373800000000 1.0
C      1  0.5571310000000  0.5414330000000  0.5153700000000 1.0
C      1  0.4441020000000  0.5391110000000  0.4826370000000 1.0
C      1  0.5568580000000  0.4625320000000  0.4844800000000 1.0
C      1  0.5590150000000  0.4994130000000  0.4889220000000 1.0
C      1  0.4895720000000  0.5586780000000  0.4993070000000 1.0
C      1  0.4997460000000  0.4897770000000  0.5581170000000 1.0
C      1  0.4412210000000  0.5006060000000  0.4895860000000 1.0
C      1  0.4412710000000  0.4994950000000  0.5106460000000 1.0
C      1  0.5581010000000  0.5001500000000  0.5101370000000 1.0
C      1  0.5101200000000  0.4417950000000  0.4997640000000 1.0
C      1  0.5106320000000  0.5586270000000  0.5004190000000 1.0
C      1  0.4889050000000  0.4408820000000  0.5004990000000 1.0
C      1  0.5004830000000  0.5109930000000  0.5590300000000 1.0
C      1  0.5004040000000  0.4892650000000  0.4412870000000 1.0
C      1  0.4992930000000  0.5103260000000  0.4412360000000 1.0
C      1  0.4999770000000  0.5586350000000  0.4892230000000 1.0
C      1  0.5588790000000  0.4891120000000  0.4992440000000 1.0
C      1  0.4896180000000  0.5000420000000  0.5583180000000 1.0
C      1  0.4998560000000  0.4415940000000  0.4896350000000 1.0
C      1  0.4992270000000  0.4410180000000  0.5108010000000 1.0
C      1  0.5003120000000  0.5583340000000  0.5106030000000 1.0
C      1  0.4412630000000  0.5106910000000  0.4999910000000 1.0
C      1  0.5583030000000  0.5102780000000  0.4998720000000 1.0
C      1  0.4415640000000  0.4893100000000  0.5003260000000 1.0
C      1  0.5107840000000  0.5006700000000  0.5588940000000 1.0
C      1  0.4892080000000  0.4999210000000  0.4412790000000 1.0
C      1  0.5105890000000  0.4995860000000  0.4415800000000 1.0
C      1  0.4898980000000  0.4992720000000  0.4166210000000 1.0
C      1  0.4168060000000  0.4894920000000  0.4997810000000 1.0
C      1  0.4999620000000  0.4167980000000  0.4895340000000 1.0
C      1  0.5104070000000  0.5001300000000  0.4168220000000 1.0
C      1  0.5098500000000  0.4993990000000  0.5834880000000 1.0
C      1  0.4895170000000  0.4999360000000  0.5831140000000 1.0
C      1  0.5830990000000  0.5103790000000  0.4999790000000 1.0
C      1  0.5834720000000  0.4900450000000  0.5005160000000 1.0
C      1  0.4166060000000  0.5100010000000  0.5006390000000 1.0
C      1  0.5006260000000  0.5832920000000  0.4899120000000 1.0
C      1  0.5004980000000  0.4164250000000  0.5098680000000 1.0
C      1  0.4997670000000  0.5830920000000  0.5104210000000 1.0
C      1  0.5000340000000  0.4895370000000  0.4165600000000 1.0
C      1  0.4899780000000  0.4163170000000  0.4993720000000 1.0
C      1  0.4165560000000  0.4996400000000  0.4900350000000 1.0
C      1  0.5002600000000  0.5098760000000  0.4165710000000 1.0
C      1  0.4993540000000  0.5099190000000  0.5835950000000 1.0
C      1  0.4999610000000  0.4894660000000  0.5829120000000 1.0
C      1  0.5103610000000  0.5833530000000  0.5000490000000 1.0
C      1  0.4900220000000  0.5833430000000  0.5002740000000 1.0
C      1  0.5104310000000  0.4170010000000  0.4999790000000 1.0
C      1  0.5835800000000  0.5005410000000  0.4899950000000 1.0
C      1  0.4165450000000  0.4998650000000  0.5103740000000 1.0
C      1  0.5828960000000  0.4999350000000  0.5104490000000 1.0
C      1  0.5315180000000  0.4583630000000  0.5688720000000 1.0
C      1  0.5696610000000  0.5320420000000  0.4580730000000 1.0
C      1  0.4591110000000  0.5690840000000  0.5325310000000 1.0
C      1  0.4678540000000  0.5418420000000  0.5696750000000 1.0
C      1  0.4672250000000  0.4588670000000  0.4307260000000 1.0
C      1  0.5325180000000  0.5407860000000  0.4308300000000 1.0
C      1  0.4308140000000  0.4673810000000  0.4591260000000 1.0
C      1  0.4307100000000  0.5326740000000  0.5410450000000 1.0
C      1  0.5688550000000  0.4683770000000  0.5415510000000 1.0
C      1  0.5415330000000  0.4310410000000  0.5315360000000 1.0
C      1  0.5410310000000  0.5691870000000  0.4672400000000 1.0
C      1  0.4580560000000  0.4302370000000  0.4678700000000 1.0
C      1  0.4587540000000  0.5327930000000  0.5694460000000 1.0
C      1  0.5319650000000  0.5690550000000  0.4581630000000 1.0
C      1  0.5690770000000  0.4591030000000  0.5327040000000 1.0
C      1  0.5407930000000  0.4672100000000  0.5690940000000 1.0
C      1  0.4581490000000  0.4679340000000  0.4308570000000 1.0
C      1  0.5415220000000  0.5316720000000  0.4308170000000 1.0
C      1  0.4671060000000  0.4304660000000  0.4587700000000 1.0
C      1  0.5326860000000  0.4308200000000  0.5408110000000 1.0
C      1  0.4682250000000  0.5690980000000  0.5415350000000 1.0
C      1  0.4308420000000  0.5417510000000  0.5319780000000 1.0
C      1  0.5694320000000  0.5411420000000  0.4671220000000 1.0
C      1  0.4308010000000  0.4583770000000  0.4682400000000 1.0
C      1  0.5102420000000  0.5251960000000  0.4919030000000 1.0
C      1  0.4920500000000  0.5103220000000  0.5251810000000 1.0
C      1  0.5207150000000  0.4973020000000  0.5183680000000 1.0
C      1  0.4895760000000  0.4747310000000  0.4920660000000 1.0
C      1  0.4902410000000  0.5250310000000  0.5074020000000 1.0
C      1  0.5183530000000  0.4791820000000  0.5026120000000 1.0
C      1  0.5025950000000  0.4815440000000  0.5207310000000 1.0
C      1  0.5073870000000  0.5096570000000  0.4748830000000 1.0
C      1  0.4918880000000  0.4896560000000  0.4747180000000 1.0
C      1  0.4747020000000  0.5080110000000  0.5102560000000 1.0
C      1  0.4748670000000  0.4925110000000  0.4902570000000 1.0
C      1  0.5251660000000  0.5078470000000  0.4895920000000 1.0
C      1  0.5212980000000  0.5189250000000  0.4965380000000 1.0
C      1  0.5097280000000  0.4925250000000  0.5248170000000 1.0
C      1  0.4975630000000  0.5206750000000  0.5182490000000 1.0
C      1  0.4792220000000  0.4816640000000  0.4975780000000 1.0
C      1  0.5248010000000  0.4901680000000  0.5073880000000 1.0
C      1  0.4788460000000  0.5189770000000  0.5033130000000 1.0
C      1  0.4809730000000  0.5033760000000  0.5213120000000 1.0
C      1  0.5182330000000  0.5023350000000  0.4792380000000 1.0
C      1  0.4809210000000  0.4966000000000  0.4788620000000 1.0
C      1  0.5073720000000  0.4750950000000  0.5097450000000 1.0
C      1  0.4965220000000  0.4785990000000  0.4809880000000 1.0
C      1  0.5032990000000  0.5210520000000  0.4809360000000 1.0
C      1  0.4919690000000  0.4708940000000  0.4484630000000 1.0
C      1  0.4485360000000  0.4924610000000  0.4710810000000 1.0
C      1  0.4703840000000  0.4479230000000  0.4924380000000 1.0
C      1  0.5074370000000  0.5288310000000  0.4485510000000 1.0
C      1  0.5065650000000  0.4706370000000  0.5508620000000 1.0
C      1  0.4924220000000  0.5295130000000  0.5519900000000 1.0
C      1  0.5519750000000  0.5074740000000  0.4704010000000 1.0
C      1  0.5508460000000  0.4933310000000  0.5292770000000 1.0
C      1  0.4484470000000  0.5079300000000  0.5290180000000 1.0
C      1  0.5290040000000  0.5514500000000  0.4919840000000 1.0
C      1  0.5292600000000  0.4490500000000  0.5065820000000 1.0
C      1  0.4710670000000  0.5513620000000  0.5074510000000 1.0
C      1  0.4704210000000  0.4930330000000  0.4484780000000 1.0
C      1  0.4922240000000  0.4484870000000  0.4709970000000 1.0
C      1  0.4488680000000  0.4704460000000  0.4932490000000 1.0
C      1  0.5294530000000  0.5066630000000  0.4488840000000 1.0
C      1  0.4709800000000  0.5076730000000  0.5514250000000 1.0
C      1  0.5288430000000  0.4922110000000  0.5516410000000 1.0
C      1  0.5068650000000  0.5514350000000  0.4704360000000 1.0
C      1  0.4932340000000  0.5510300000000  0.5294670000000 1.0
C      1  0.5076860000000  0.4482720000000  0.5288600000000 1.0
C      1  0.5514100000000  0.5289160000000  0.4922410000000 1.0
C      1  0.4484630000000  0.5294780000000  0.5068790000000 1.0
C      1  0.5516250000000  0.4710530000000  0.5077030000000 1.0
C      1  0.5014660000000  0.5416490000000  0.5536950000000 1.0
C      1  0.5518840000000  0.5021930000000  0.5418440000000 1.0
C      1  0.5412790000000  0.5527150000000  0.5005300000000 1.0
C      1  0.4977030000000  0.4580690000000  0.5519010000000 1.0
C      1  0.4986690000000  0.5412820000000  0.4468020000000 1.0
C      1  0.5005140000000  0.4586190000000  0.4471990000000 1.0
C      1  0.4471820000000  0.4993840000000  0.5412930000000 1.0
C      1  0.4467880000000  0.5012300000000  0.4586300000000 1.0
C      1  0.5536800000000  0.4984300000000  0.4582660000000 1.0
C      1  0.4582490000000  0.4462180000000  0.5014820000000 1.0
C      1  0.4586160000000  0.5531110000000  0.4986820000000 1.0
C      1  0.5418280000000  0.4480120000000  0.4977210000000 1.0
C      1  0.5409500000000  0.5011600000000  0.5535690000000 1.0
C      1  0.5022230000000  0.5523900000000  0.5418510000000 1.0
C      1  0.5528080000000  0.5416490000000  0.5005220000000 1.0
C      1  0.4582470000000  0.4993920000000  0.5528220000000 1.0
C      1  0.5418360000000  0.4976730000000  0.4475240000000 1.0
C      1  0.4581670000000  0.5018640000000  0.4473660000000 1.0
C      1  0.4987360000000  0.4463440000000  0.5409670000000 1.0
C      1  0.5005060000000  0.4470900000000  0.4582640000000 1.0
C      1  0.4980350000000  0.5525470000000  0.4581810000000 1.0
C      1  0.4475080000000  0.4580620000000  0.5022380000000 1.0
C      1  0.5535530000000  0.4589460000000  0.4987540000000 1.0
C      1  0.4473510000000  0.5417320000000  0.4980480000000 1.0
C      1  0.5133000000000  0.4759960000000  0.4253360000000 1.0
C      1  0.4247080000000  0.5130830000000  0.4766060000000 1.0
C      1  0.4762530000000  0.4242770000000  0.5130380000000 1.0
C      1  0.4868170000000  0.5233060000000  0.4247230000000 1.0
C      1  0.4866480000000  0.4764290000000  0.5736210000000 1.0
C      1  0.5130210000000  0.5236440000000  0.5756360000000 1.0
C      1  0.5756200000000  0.4868740000000  0.4762710000000 1.0
C      1  0.5736050000000  0.5132480000000  0.5234860000000 1.0
C      1  0.4253190000000  0.4865990000000  0.5239150000000 1.0
C      1  0.5239010000000  0.5745780000000  0.5133150000000 1.0
C      1  0.5234690000000  0.4262920000000  0.4866660000000 1.0
C      1  0.4765920000000  0.5751900000000  0.4868300000000 1.0
C      1  0.4762780000000  0.5129410000000  0.4249170000000 1.0
C      1  0.5127750000000  0.4259220000000  0.4763300000000 1.0
C      1  0.4255190000000  0.4761580000000  0.5134130000000 1.0
C      1  0.5237410000000  0.4864990000000  0.4255350000000 1.0
C      1  0.4763130000000  0.4871230000000  0.5739890000000 1.0
C      1  0.5233480000000  0.5131520000000  0.5756240000000 1.0
C      1  0.4869570000000  0.5749970000000  0.4762910000000 1.0
C      1  0.5133980000000  0.5743790000000  0.5237550000000 1.0
C      1  0.4867450000000  0.4242890000000  0.5233650000000 1.0
C      1  0.5739740000000  0.5235830000000  0.5127920000000 1.0
C      1  0.4249020000000  0.5236220000000  0.4869700000000 1.0
C      1  0.5756090000000  0.4765480000000  0.4867630000000 1.0
C      1  0.4738420000000  0.4343090000000  0.4858200000000 1.0
C      1  0.4854600000000  0.4743080000000  0.4346670000000 1.0
C      1  0.4349310000000  0.4855680000000  0.4745390000000 1.0
C      1  0.5255900000000  0.5652460000000  0.4854750000000 1.0
C      1  0.5260440000000  0.4350860000000  0.5134910000000 1.0
C      1  0.4745250000000  0.5649670000000  0.5143450000000 1.0
C      1  0.5143310000000  0.5253720000000  0.4349470000000 1.0
C      1  0.5134730000000  0.4738530000000  0.5648260000000 1.0
C      1  0.4858040000000  0.5260560000000  0.5656030000000 1.0
C      1  0.5655890000000  0.5140920000000  0.4738590000000 1.0
C      1  0.5648100000000  0.4864230000000  0.5260610000000 1.0
C      1  0.4346510000000  0.5144390000000  0.5256030000000 1.0
C      1  0.4349910000000  0.4738210000000  0.4862910000000 1.0
C      1  0.4737670000000  0.4860090000000  0.4346080000000 1.0
C      1  0.4854760000000  0.4346810000000  0.4741450000000 1.0
C      1  0.5652160000000  0.5257680000000  0.4854920000000 1.0
C      1  0.4345920000000  0.5261320000000  0.5139030000000 1.0
C      1  0.5650830000000  0.4745280000000  0.5144650000000 1.0
C      1  0.5260780000000  0.5136200000000  0.4350060000000 1.0
C      1  0.4741280000000  0.5144220000000  0.5652300000000 1.0
C      1  0.5253680000000  0.4854490000000  0.5650990000000 1.0
C      1  0.5138890000000  0.5653050000000  0.4737810000000 1.0
C      1  0.4862770000000  0.5649080000000  0.5260920000000 1.0
C      1  0.5144470000000  0.4348130000000  0.5253850000000 1.0
C      1  0.4909270000000  0.5598070000000  0.5499130000000 1.0
C      1  0.5492690000000  0.4902140000000  0.5599780000000 1.0
C      1  0.5595000000000  0.5498070000000  0.4893590000000 1.0
C      1  0.5096820000000  0.4399350000000  0.5492870000000 1.0
C      1  0.5093110000000  0.5595810000000  0.4499680000000 1.0
C      1  0.4893430000000  0.4403980000000  0.4501060000000 1.0
C      1  0.4500900000000  0.5105550000000  0.5595140000000 1.0
C      1  0.4499540000000  0.4905880000000  0.4403320000000 1.0
C      1  0.5498990000000  0.5089690000000  0.4401070000000 1.0
C      1  0.4400910000000  0.4499990000000  0.4909430000000 1.0
C      1  0.4403170000000  0.5499460000000  0.5093240000000 1.0
C      1  0.5599620000000  0.4506260000000  0.5097000000000 1.0
C      1  0.5592990000000  0.4908320000000  0.5499120000000 1.0
C      1  0.4906280000000  0.5499580000000  0.5601640000000 1.0
C      1  0.5493420000000  0.5598390000000  0.4898070000000 1.0
C      1  0.4400570000000  0.5101070000000  0.5493550000000 1.0
C      1  0.5601490000000  0.5092680000000  0.4499570000000 1.0
C      1  0.4401320000000  0.4901780000000  0.4505890000000 1.0
C      1  0.5090630000000  0.4500020000000  0.5593160000000 1.0
C      1  0.4897920000000  0.4505560000000  0.4400740000000 1.0
C      1  0.5097210000000  0.5493230000000  0.4401460000000 1.0
C      1  0.4499400000000  0.4397490000000  0.4906430000000 1.0
C      1  0.5498950000000  0.4405960000000  0.5090820000000 1.0
C      1  0.4505740000000  0.5597670000000  0.5097350000000 1.0
C      1  0.5046420000000  0.5061060000000  0.4615650000000 1.0
C      1  0.4946190000000  0.4936650000000  0.4614630000000 1.0
C      1  0.4951570000000  0.5067250000000  0.5384700000000 1.0
C      1  0.5063270000000  0.4954370000000  0.5382540000000 1.0
C      1  0.4614470000000  0.5052800000000  0.5062470000000 1.0
C      1  0.5044600000000  0.4616580000000  0.5063440000000 1.0
C      1  0.5382380000000  0.4935690000000  0.5044770000000 1.0
C      1  0.5384550000000  0.5047400000000  0.4931890000000 1.0
C      1  0.4615490000000  0.4952560000000  0.4938060000000 1.0
C      1  0.4937910000000  0.5383490000000  0.5046570000000 1.0
C      1  0.4931720000000  0.4614420000000  0.4951730000000 1.0
C      1  0.5062330000000  0.5384510000000  0.4946330000000 1.0
C      1  0.5356610000000  0.4576380000000  0.4593230000000 1.0
C      1  0.4594290000000  0.5404690000000  0.4594430000000 1.0
C      1  0.4593060000000  0.4642370000000  0.5422740000000 1.0
C      1  0.5422580000000  0.5405910000000  0.5356770000000 1.0
END
