TITL C-1892085-2338-19 2.25428969924689e-07 1000000 -2690.17536060915 0 0 380 (Th) n - 1
REM
REM in /nfs/bkarasulu/CARBON/AIRSS/Generating-Clusters/GAP-ML-2020/Higher-Symm/Selected-Sizes/TryA-Only_Ih-Symm/Larger-Clusters
REM
REM
REM
REM
REM
REM ./C.cell (2cf5181f0f1d4d5b12b972d32ad12063)
REM
REM compiler GCC version 9.2.1 20190827 (Red Hat 9.2.1-1)
REM options -cpp -mtune=generic -march=x86-64 -g -O0 -fpre-include=/usr/include/finclude/math-vector-fortran.h
REM seed -1340286581 -399824503 -2016735297 1496284879 -701176391 151803831 860131338 -1855968407 -1363821660 1094553111 2011156243 -1074075939 -1680379330 1137966978 -179313515 869782917 1147528952 946449218 527243638 28691856 1128465780 1225492858 1613403732 252356297 2063942890 1468737852 -1385077498 -1221640561 -543110531 -1774127179 902604874 1462124766 -1270860415
REM
CELL 1.54180  100.00000  100.00000  100.00000   90.00000   90.00000   90.00000
LATT -1
SFAC C  
C      1  0.4285770000000  0.4719920000000  0.5069820000000 1.0
C      1  0.4721980000000  0.5072120000000  0.4281410000000 1.0
C      1  0.5074190000000  0.4283710000000  0.4717610000000 1.0
C      1  0.5718840000000  0.4719920000000  0.4926060000000 1.0
C      1  0.5718840000000  0.5280570000000  0.5069820000000 1.0
C      1  0.4285770000000  0.5280570000000  0.4926060000000 1.0
C      1  0.5282630000000  0.5072120000000  0.5714470000000 1.0
C      1  0.5282630000000  0.4928360000000  0.4281400000000 1.0
C      1  0.4721980000000  0.4928360000000  0.5714470000000 1.0
C      1  0.4930420000000  0.4283710000000  0.5278260000000 1.0
C      1  0.4930420000000  0.5716780000000  0.4717610000000 1.0
C      1  0.5074190000000  0.5716780000000  0.5278260000000 1.0
C      1  0.4285770000000  0.5280570000000  0.5069820000000 1.0
C      1  0.4721980000000  0.4928360000000  0.4281400000000 1.0
C      1  0.5074190000000  0.5716780000000  0.4717610000000 1.0
C      1  0.5718840000000  0.5280570000000  0.4926060000000 1.0
C      1  0.5718840000000  0.4719920000000  0.5069820000000 1.0
C      1  0.4285760000000  0.4719920000000  0.4926060000000 1.0
C      1  0.5282630000000  0.4928360000000  0.5714470000000 1.0
C      1  0.5282630000000  0.5072120000000  0.4281400000000 1.0
C      1  0.4721980000000  0.5072120000000  0.5714470000000 1.0
C      1  0.4930420000000  0.5716780000000  0.5278260000000 1.0
C      1  0.4930420000000  0.4283710000000  0.4717610000000 1.0
C      1  0.5074190000000  0.4283710000000  0.5278260000000 1.0
C      1  0.4640060000000  0.4775620000000  0.4589590000000 1.0
C      1  0.4777680000000  0.4591900000000  0.4635700000000 1.0
C      1  0.4593960000000  0.4638000000000  0.4773310000000 1.0
C      1  0.5364550000000  0.4775620000000  0.5406280000000 1.0
C      1  0.5364550000000  0.5224870000000  0.4589590000000 1.0
C      1  0.4640060000000  0.5224870000000  0.5406280000000 1.0
C      1  0.5226930000000  0.4591900000000  0.5360180000000 1.0
C      1  0.5226930000000  0.5408590000000  0.4635700000000 1.0
C      1  0.4777680000000  0.5408590000000  0.5360180000000 1.0
C      1  0.5410650000000  0.4638000000000  0.5222560000000 1.0
C      1  0.5410650000000  0.5362480000000  0.4773310000000 1.0
C      1  0.4593960000000  0.5362480000000  0.5222560000000 1.0
C      1  0.4640060000000  0.5224870000000  0.4589590000000 1.0
C      1  0.4777680000000  0.5408590000000  0.4635700000000 1.0
C      1  0.4593960000000  0.5362480000000  0.4773310000000 1.0
C      1  0.5364550000000  0.5224870000000  0.5406280000000 1.0
C      1  0.5364550000000  0.4775620000000  0.4589590000000 1.0
C      1  0.4640060000000  0.4775620000000  0.5406280000000 1.0
C      1  0.5226930000000  0.5408590000000  0.5360180000000 1.0
C      1  0.5226930000000  0.4591900000000  0.4635700000000 1.0
C      1  0.4777680000000  0.4591900000000  0.5360180000000 1.0
C      1  0.5410650000000  0.5362480000000  0.5222560000000 1.0
C      1  0.5410650000000  0.4638000000000  0.4773310000000 1.0
C      1  0.4593960000000  0.4638000000000  0.5222560000000 1.0
C      1  0.5684780000000  0.5410850000000  0.5143490000000 1.0
C      1  0.5412910000000  0.5145790000000  0.5680410000000 1.0
C      1  0.5147850000000  0.5682710000000  0.5408540000000 1.0
C      1  0.4319830000000  0.5410850000000  0.4852390000000 1.0
C      1  0.4319830000000  0.4589630000000  0.5143490000000 1.0
C      1  0.5684780000000  0.4589630000000  0.4852390000000 1.0
C      1  0.4591700000000  0.5145790000000  0.4315470000000 1.0
C      1  0.4591700000000  0.4854690000000  0.5680410000000 1.0
C      1  0.5412910000000  0.4854690000000  0.4315470000000 1.0
C      1  0.4856760000000  0.5682710000000  0.4587330000000 1.0
C      1  0.4856760000000  0.4317770000000  0.5408540000000 1.0
C      1  0.5147850000000  0.4317770000000  0.4587330000000 1.0
C      1  0.5684780000000  0.4589630000000  0.5143490000000 1.0
C      1  0.5412910000000  0.4854690000000  0.5680410000000 1.0
C      1  0.5147850000000  0.4317770000000  0.5408540000000 1.0
C      1  0.4319830000000  0.4589630000000  0.4852390000000 1.0
C      1  0.4319830000000  0.5410850000000  0.5143490000000 1.0
C      1  0.5684780000000  0.5410850000000  0.4852390000000 1.0
C      1  0.4591690000000  0.4854690000000  0.4315470000000 1.0
C      1  0.4591700000000  0.5145790000000  0.5680410000000 1.0
C      1  0.5412910000000  0.5145790000000  0.4315470000000 1.0
C      1  0.4856760000000  0.4317770000000  0.4587330000000 1.0
C      1  0.4856760000000  0.5682710000000  0.5408540000000 1.0
C      1  0.5147850000000  0.5682710000000  0.4587330000000 1.0
C      1  0.4329000000000  0.4611590000000  0.5282370000000 1.0
C      1  0.4613650000000  0.5284680000000  0.4324640000000 1.0
C      1  0.5286740000000  0.4326940000000  0.4609290000000 1.0
C      1  0.5675610000000  0.4611590000000  0.4713500000000 1.0
C      1  0.5675610000000  0.5388890000000  0.5282370000000 1.0
C      1  0.4329000000000  0.5388890000000  0.4713500000000 1.0
C      1  0.5390950000000  0.5284680000000  0.5671240000000 1.0
C      1  0.5390960000000  0.4715810000000  0.4324640000000 1.0
C      1  0.4613650000000  0.4715810000000  0.5671230000000 1.0
C      1  0.4717870000000  0.4326940000000  0.5386590000000 1.0
C      1  0.4717870000000  0.5673540000000  0.4609290000000 1.0
C      1  0.5286740000000  0.5673540000000  0.5386590000000 1.0
C      1  0.4329000000000  0.5388890000000  0.5282370000000 1.0
C      1  0.4613650000000  0.4715810000000  0.4324640000000 1.0
C      1  0.5286740000000  0.5673540000000  0.4609290000000 1.0
C      1  0.5675610000000  0.5388890000000  0.4713500000000 1.0
C      1  0.5675610000000  0.4611590000000  0.5282370000000 1.0
C      1  0.4329000000000  0.4611590000000  0.4713500000000 1.0
C      1  0.5390960000000  0.4715810000000  0.5671240000000 1.0
C      1  0.5390960000000  0.5284680000000  0.4324640000000 1.0
C      1  0.4613650000000  0.5284680000000  0.5671240000000 1.0
C      1  0.4717870000000  0.5673540000000  0.5386590000000 1.0
C      1  0.4717870000000  0.4326940000000  0.4609290000000 1.0
C      1  0.5286740000000  0.4326940000000  0.5386590000000 1.0
C      1  0.4849010000000  0.5147510000000  0.4251780000000 1.0
C      1  0.5149580000000  0.4254080000000  0.4844650000000 1.0
C      1  0.4256140000000  0.4846950000000  0.5145210000000 1.0
C      1  0.5155590000000  0.5147510000000  0.5744100000000 1.0
C      1  0.5155600000000  0.4852970000000  0.4251780000000 1.0
C      1  0.4849010000000  0.4852970000000  0.5744100000000 1.0
C      1  0.4855030000000  0.4254080000000  0.5151230000000 1.0
C      1  0.4855030000000  0.5746410000000  0.4844650000000 1.0
C      1  0.5149580000000  0.5746410000000  0.5151230000000 1.0
C      1  0.5748470000000  0.4846950000000  0.4850670000000 1.0
C      1  0.5748470000000  0.5153530000000  0.5145210000000 1.0
C      1  0.4256140000000  0.5153530000000  0.4850670000000 1.0
C      1  0.4849010000000  0.4852970000000  0.4251780000000 1.0
C      1  0.5149580000000  0.5746410000000  0.4844650000000 1.0
C      1  0.4256140000000  0.5153530000000  0.5145210000000 1.0
C      1  0.5155590000000  0.4852970000000  0.5744100000000 1.0
C      1  0.5155590000000  0.5147510000000  0.4251780000000 1.0
C      1  0.4849010000000  0.5147510000000  0.5744100000000 1.0
C      1  0.4855030000000  0.5746410000000  0.5151230000000 1.0
C      1  0.4855030000000  0.4254080000000  0.4844650000000 1.0
C      1  0.5149580000000  0.4254080000000  0.5151230000000 1.0
C      1  0.5748470000000  0.5153530000000  0.4850670000000 1.0
C      1  0.5748470000000  0.4846950000000  0.5145210000000 1.0
C      1  0.4256140000000  0.4846950000000  0.4850670000000 1.0
C      1  0.4292570000000  0.5075100000000  0.5267030000000 1.0
C      1  0.5077160000000  0.5269330000000  0.4288210000000 1.0
C      1  0.5271390000000  0.4290510000000  0.5072800000000 1.0
C      1  0.5712040000000  0.5075100000000  0.4728850000000 1.0
C      1  0.5712040000000  0.4925380000000  0.5267030000000 1.0
C      1  0.4292570000000  0.4925380000000  0.4728850000000 1.0
C      1  0.4927440000000  0.5269330000000  0.5707660000000 1.0
C      1  0.4927440000000  0.4731150000000  0.4288210000000 1.0
C      1  0.5077160000000  0.4731150000000  0.5707660000000 1.0
C      1  0.4733220000000  0.4290510000000  0.4923080000000 1.0
C      1  0.4733220000000  0.5709970000000  0.5072800000000 1.0
C      1  0.5271390000000  0.5709970000000  0.4923080000000 1.0
C      1  0.4292570000000  0.4925380000000  0.5267030000000 1.0
C      1  0.5077160000000  0.4731150000000  0.4288210000000 1.0
C      1  0.5271390000000  0.5709970000000  0.5072800000000 1.0
C      1  0.5712040000000  0.4925380000000  0.4728850000000 1.0
C      1  0.5712040000000  0.5075100000000  0.5267030000000 1.0
C      1  0.4292570000000  0.5075100000000  0.4728850000000 1.0
C      1  0.4927440000000  0.4731150000000  0.5707660000000 1.0
C      1  0.4927440000000  0.5269330000000  0.4288210000000 1.0
C      1  0.5077160000000  0.5269330000000  0.5707660000000 1.0
C      1  0.4733220000000  0.5709970000000  0.4923080000000 1.0
C      1  0.4733220000000  0.4290510000000  0.5072800000000 1.0
C      1  0.5271390000000  0.4290510000000  0.4923080000000 1.0
C      1  0.4490050000000  0.4733160000000  0.5213300000000 1.0
C      1  0.4735220000000  0.5215610000000  0.4485680000000 1.0
C      1  0.5217670000000  0.4487990000000  0.4730860000000 1.0
C      1  0.5514560000000  0.4733160000000  0.4782570000000 1.0
C      1  0.5514560000000  0.5267330000000  0.5213310000000 1.0
C      1  0.4490050000000  0.5267330000000  0.4782570000000 1.0
C      1  0.5269390000000  0.5215610000000  0.5510190000000 1.0
C      1  0.5269390000000  0.4784880000000  0.4485680000000 1.0
C      1  0.4735220000000  0.4784880000000  0.5510190000000 1.0
C      1  0.4786940000000  0.4487990000000  0.5265020000000 1.0
C      1  0.4786940000000  0.5512500000000  0.4730860000000 1.0
C      1  0.5217670000000  0.5512500000000  0.5265020000000 1.0
C      1  0.4490050000000  0.5267330000000  0.5213300000000 1.0
C      1  0.4735220000000  0.4784880000000  0.4485690000000 1.0
C      1  0.5217670000000  0.5512500000000  0.4730860000000 1.0
C      1  0.5514560000000  0.5267330000000  0.4782570000000 1.0
C      1  0.5514560000000  0.4733160000000  0.5213300000000 1.0
C      1  0.4490050000000  0.4733160000000  0.4782570000000 1.0
C      1  0.5269390000000  0.4784880000000  0.5510190000000 1.0
C      1  0.5269390000000  0.5215610000000  0.4485680000000 1.0
C      1  0.4735220000000  0.5215610000000  0.5510190000000 1.0
C      1  0.4786940000000  0.5512500000000  0.5265020000000 1.0
C      1  0.4786940000000  0.4487990000000  0.4730860000000 1.0
C      1  0.5217670000000  0.4487990000000  0.5265020000000 1.0
C      1  0.4175920000000  0.5072250000000  0.4926230000000 1.0
C      1  0.5074310000000  0.4928530000000  0.4171560000000 1.0
C      1  0.4930600000000  0.4173860000000  0.5069940000000 1.0
C      1  0.5828690000000  0.5072250000000  0.5069650000000 1.0
C      1  0.5828690000000  0.4928240000000  0.4926230000000 1.0
C      1  0.4175920000000  0.4928240000000  0.5069650000000 1.0
C      1  0.4930300000000  0.4928530000000  0.5824310000000 1.0
C      1  0.4930300000000  0.5071950000000  0.4171560000000 1.0
C      1  0.5074310000000  0.5071950000000  0.5824310000000 1.0
C      1  0.5074010000000  0.4173860000000  0.4925930000000 1.0
C      1  0.5074010000000  0.5826620000000  0.5069940000000 1.0
C      1  0.4930600000000  0.5826620000000  0.4925930000000 1.0
C      1  0.4175920000000  0.4928240000000  0.4926230000000 1.0
C      1  0.5074310000000  0.5071950000000  0.4171560000000 1.0
C      1  0.4930600000000  0.5826620000000  0.5069940000000 1.0
C      1  0.5828690000000  0.4928240000000  0.5069650000000 1.0
C      1  0.5828690000000  0.5072250000000  0.4926230000000 1.0
C      1  0.4175920000000  0.5072250000000  0.5069650000000 1.0
C      1  0.4930300000000  0.5071950000000  0.5824310000000 1.0
C      1  0.4930300000000  0.4928530000000  0.4171560000000 1.0
C      1  0.5074310000000  0.4928530000000  0.5824310000000 1.0
C      1  0.5074010000000  0.5826620000000  0.4925930000000 1.0
C      1  0.5074010000000  0.4173860000000  0.5069940000000 1.0
C      1  0.4930600000000  0.4173860000000  0.4925930000000 1.0
C      1  0.5450440000000  0.5143370000000  0.4805510000000 1.0
C      1  0.5145440000000  0.4807810000000  0.5446060000000 1.0
C      1  0.4809870000000  0.5448370000000  0.5141070000000 1.0
C      1  0.4554170000000  0.5143380000000  0.5190370000000 1.0
C      1  0.4554170000000  0.4857110000000  0.4805510000000 1.0
C      1  0.5450440000000  0.4857110000000  0.5190370000000 1.0
C      1  0.4859170000000  0.4807810000000  0.4549810000000 1.0
C      1  0.4859170000000  0.5192670000000  0.5446060000000 1.0
C      1  0.5145440000000  0.5192670000000  0.4549810000000 1.0
C      1  0.5194740000000  0.5448370000000  0.4854810000000 1.0
C      1  0.5194740000000  0.4552110000000  0.5141070000000 1.0
C      1  0.4809870000000  0.4552110000000  0.4854810000000 1.0
C      1  0.5450440000000  0.4857110000000  0.4805510000000 1.0
C      1  0.5145440000000  0.5192670000000  0.5446060000000 1.0
C      1  0.4809870000000  0.4552110000000  0.5141070000000 1.0
C      1  0.4554170000000  0.4857110000000  0.5190370000000 1.0
C      1  0.4554170000000  0.5143380000000  0.4805510000000 1.0
C      1  0.5450440000000  0.5143370000000  0.5190370000000 1.0
C      1  0.4859170000000  0.5192670000000  0.4549810000000 1.0
C      1  0.4859170000000  0.4807810000000  0.5446060000000 1.0
C      1  0.5145440000000  0.4807810000000  0.4549810000000 1.0
C      1  0.5194740000000  0.4552110000000  0.4854810000000 1.0
C      1  0.5194740000000  0.5448370000000  0.5141070000000 1.0
C      1  0.4809870000000  0.5448370000000  0.4854810000000 1.0
C      1  0.4622800000000  0.4882550000000  0.4682460000000 1.0
C      1  0.4884620000000  0.4684760000000  0.4618440000000 1.0
C      1  0.4686820000000  0.4620740000000  0.4880250000000 1.0
C      1  0.5381810000000  0.4882550000000  0.5313420000000 1.0
C      1  0.5381810000000  0.5117930000000  0.4682460000000 1.0
C      1  0.4622800000000  0.5117930000000  0.5313420000000 1.0
C      1  0.5119990000000  0.4684760000000  0.5377440000000 1.0
C      1  0.5119990000000  0.5315720000000  0.4618440000000 1.0
C      1  0.4884620000000  0.5315720000000  0.5377440000000 1.0
C      1  0.5317790000000  0.4620740000000  0.5115630000000 1.0
C      1  0.5317790000000  0.5379750000000  0.4880250000000 1.0
C      1  0.4686820000000  0.5379750000000  0.5115630000000 1.0
C      1  0.4622800000000  0.5117930000000  0.4682460000000 1.0
C      1  0.4884620000000  0.5315720000000  0.4618440000000 1.0
C      1  0.4686820000000  0.5379750000000  0.4880250000000 1.0
C      1  0.5381810000000  0.5117930000000  0.5313420000000 1.0
C      1  0.5381810000000  0.4882550000000  0.4682460000000 1.0
C      1  0.4622800000000  0.4882550000000  0.5313420000000 1.0
C      1  0.5119990000000  0.5315720000000  0.5377440000000 1.0
C      1  0.5119990000000  0.4684760000000  0.4618440000000 1.0
C      1  0.4884620000000  0.4684760000000  0.5377440000000 1.0
C      1  0.5317790000000  0.5379750000000  0.5115630000000 1.0
C      1  0.5317790000000  0.4620740000000  0.4880250000000 1.0
C      1  0.4686820000000  0.4620740000000  0.5115630000000 1.0
C      1  0.5509230000000  0.4927920000000  0.4393720000000 1.0
C      1  0.4929980000000  0.4396020000000  0.5504860000000 1.0
C      1  0.4398090000000  0.5507170000000  0.4925610000000 1.0
C      1  0.4495370000000  0.4927920000000  0.5602150000000 1.0
C      1  0.4495370000000  0.5072570000000  0.4393720000000 1.0
C      1  0.5509230000000  0.5072570000000  0.5602150000000 1.0
C      1  0.5074630000000  0.4396020000000  0.4491010000000 1.0
C      1  0.5074630000000  0.5604460000000  0.5504870000000 1.0
C      1  0.4929980000000  0.5604460000000  0.4491010000000 1.0
C      1  0.5606520000000  0.5507170000000  0.5070260000000 1.0
C      1  0.5606520000000  0.4493310000000  0.4925610000000 1.0
C      1  0.4398090000000  0.4493310000000  0.5070260000000 1.0
C      1  0.5509230000000  0.5072570000000  0.4393720000000 1.0
C      1  0.4929980000000  0.5604460000000  0.5504860000000 1.0
C      1  0.4398090000000  0.4493310000000  0.4925610000000 1.0
C      1  0.4495370000000  0.5072570000000  0.5602150000000 1.0
C      1  0.4495370000000  0.4927920000000  0.4393720000000 1.0
C      1  0.5509230000000  0.4927920000000  0.5602150000000 1.0
C      1  0.5074630000000  0.5604460000000  0.4491010000000 1.0
C      1  0.5074630000000  0.4396020000000  0.5504860000000 1.0
C      1  0.4929980000000  0.4396020000000  0.4491010000000 1.0
C      1  0.5606520000000  0.4493310000000  0.5070260000000 1.0
C      1  0.5606520000000  0.5507170000000  0.4925610000000 1.0
C      1  0.4398090000000  0.5507170000000  0.5070260000000 1.0
C      1  0.4537300000000  0.5072160000000  0.4923420000000 1.0
C      1  0.5074220000000  0.4925730000000  0.4532940000000 1.0
C      1  0.4927790000000  0.4535250000000  0.5069850000000 1.0
C      1  0.5467310000000  0.5072160000000  0.5072450000000 1.0
C      1  0.5467310000000  0.4928330000000  0.4923420000000 1.0
C      1  0.4537300000000  0.4928330000000  0.5072450000000 1.0
C      1  0.4930390000000  0.4925730000000  0.5462930000000 1.0
C      1  0.4930390000000  0.5074760000000  0.4532950000000 1.0
C      1  0.5074220000000  0.5074760000000  0.5462930000000 1.0
C      1  0.5076820000000  0.4535250000000  0.4926020000000 1.0
C      1  0.5076820000000  0.5465240000000  0.5069850000000 1.0
C      1  0.4927790000000  0.5465240000000  0.4926020000000 1.0
C      1  0.4537300000000  0.4928330000000  0.4923420000000 1.0
C      1  0.5074220000000  0.5074760000000  0.4532950000000 1.0
C      1  0.4927790000000  0.5465240000000  0.5069850000000 1.0
C      1  0.5467310000000  0.4928330000000  0.5072450000000 1.0
C      1  0.5467310000000  0.5072160000000  0.4923420000000 1.0
C      1  0.4537300000000  0.5072160000000  0.5072450000000 1.0
C      1  0.4930390000000  0.5074760000000  0.5462930000000 1.0
C      1  0.4930390000000  0.4925730000000  0.4532940000000 1.0
C      1  0.5074220000000  0.4925730000000  0.5462930000000 1.0
C      1  0.5076820000000  0.5465240000000  0.4926020000000 1.0
C      1  0.5076820000000  0.4535250000000  0.5069850000000 1.0
C      1  0.4927790000000  0.4535250000000  0.4926020000000 1.0
C      1  0.4390900000000  0.5277740000000  0.5327690000000 1.0
C      1  0.5279800000000  0.5330000000000  0.4386540000000 1.0
C      1  0.5332060000000  0.4388840000000  0.5275440000000 1.0
C      1  0.5613710000000  0.5277740000000  0.4668180000000 1.0
C      1  0.5613710000000  0.4722740000000  0.5327690000000 1.0
C      1  0.4390900000000  0.4722740000000  0.4668180000000 1.0
C      1  0.4724800000000  0.5330000000000  0.5609340000000 1.0
C      1  0.4724800000000  0.4670490000000  0.4386540000000 1.0
C      1  0.5279800000000  0.4670490000000  0.5609340000000 1.0
C      1  0.4672550000000  0.4388840000000  0.4720440000000 1.0
C      1  0.4672550000000  0.5611650000000  0.5275440000000 1.0
C      1  0.5332060000000  0.5611640000000  0.4720440000000 1.0
C      1  0.4390900000000  0.4722740000000  0.5327690000000 1.0
C      1  0.5279800000000  0.4670490000000  0.4386540000000 1.0
C      1  0.5332060000000  0.5611640000000  0.5275440000000 1.0
C      1  0.5613710000000  0.4722740000000  0.4668180000000 1.0
C      1  0.5613710000000  0.5277740000000  0.5327690000000 1.0
C      1  0.4390900000000  0.5277740000000  0.4668180000000 1.0
C      1  0.4724800000000  0.4670490000000  0.5609340000000 1.0
C      1  0.4724800000000  0.5330000000000  0.4386540000000 1.0
C      1  0.5279800000000  0.5330000000000  0.5609340000000 1.0
C      1  0.4672550000000  0.5611640000000  0.4720440000000 1.0
C      1  0.4672550000000  0.4388840000000  0.5275440000000 1.0
C      1  0.5332060000000  0.4388840000000  0.4720440000000 1.0
C      1  0.5611730000000  0.5073980000000  0.4502970000000 1.0
C      1  0.5076040000000  0.4505280000000  0.5607360000000 1.0
C      1  0.4507340000000  0.5609670000000  0.5071670000000 1.0
C      1  0.4392880000000  0.5073980000000  0.5492900000000 1.0
C      1  0.4392880000000  0.4926510000000  0.4502980000000 1.0
C      1  0.5611730000000  0.4926510000000  0.5492900000000 1.0
C      1  0.4928570000000  0.4505280000000  0.4388510000000 1.0
C      1  0.4928570000000  0.5495210000000  0.5607360000000 1.0
C      1  0.5076040000000  0.5495210000000  0.4388510000000 1.0
C      1  0.5497270000000  0.5609670000000  0.4924200000000 1.0
C      1  0.5497270000000  0.4390820000000  0.5071670000000 1.0
C      1  0.4507340000000  0.4390820000000  0.4924200000000 1.0
C      1  0.5611730000000  0.4926510000000  0.4502970000000 1.0
C      1  0.5076040000000  0.5495210000000  0.5607360000000 1.0
C      1  0.4507340000000  0.4390820000000  0.5071670000000 1.0
C      1  0.4392880000000  0.4926510000000  0.5492900000000 1.0
C      1  0.4392880000000  0.5073980000000  0.4502980000000 1.0
C      1  0.5611730000000  0.5073980000000  0.5492900000000 1.0
C      1  0.4928570000000  0.5495210000000  0.4388510000000 1.0
C      1  0.4928570000000  0.4505280000000  0.5607360000000 1.0
C      1  0.5076040000000  0.4505280000000  0.4388510000000 1.0
C      1  0.5497270000000  0.4390820000000  0.4924200000000 1.0
C      1  0.5497270000000  0.5609670000000  0.5071670000000 1.0
C      1  0.4507340000000  0.5609670000000  0.4924200000000 1.0
C      1  0.4856110000000  0.5380900000000  0.5652150000000 1.0
C      1  0.5382970000000  0.5654460000000  0.4851740000000 1.0
C      1  0.5656520000000  0.4854050000000  0.5378600000000 1.0
C      1  0.5148500000000  0.5380900000000  0.4343730000000 1.0
C      1  0.5148500000000  0.4619580000000  0.5652150000000 1.0
C      1  0.4856110000000  0.4619580000000  0.4343730000000 1.0
C      1  0.4621640000000  0.5654460000000  0.5144130000000 1.0
C      1  0.4621640000000  0.4346030000000  0.4851740000000 1.0
C      1  0.5382970000000  0.4346030000000  0.5144130000000 1.0
C      1  0.4348090000000  0.4854050000000  0.4617280000000 1.0
C      1  0.4348090000000  0.5146440000000  0.5378600000000 1.0
C      1  0.5656520000000  0.5146440000000  0.4617280000000 1.0
C      1  0.4856110000000  0.4619580000000  0.5652150000000 1.0
C      1  0.5382970000000  0.4346030000000  0.4851740000000 1.0
C      1  0.5656520000000  0.5146440000000  0.5378600000000 1.0
C      1  0.5148500000000  0.4619580000000  0.4343730000000 1.0
C      1  0.5148500000000  0.5380900000000  0.5652150000000 1.0
C      1  0.4856110000000  0.5380900000000  0.4343730000000 1.0
C      1  0.4621640000000  0.4346030000000  0.5144130000000 1.0
C      1  0.4621640000000  0.5654460000000  0.4851740000000 1.0
C      1  0.5382970000000  0.5654460000000  0.5144130000000 1.0
C      1  0.4348090000000  0.5146440000000  0.4617280000000 1.0
C      1  0.4348090000000  0.4854050000000  0.5378600000000 1.0
C      1  0.5656520000000  0.4854050000000  0.4617280000000 1.0
C      1  0.5361750000000  0.4662810000000  0.4997940000000 1.0
C      1  0.4664870000000  0.5000240000000  0.5357380000000 1.0
C      1  0.5002300000000  0.5359680000000  0.4660510000000 1.0
C      1  0.4642860000000  0.5337680000000  0.4997940000000 1.0
C      1  0.5339740000000  0.5000240000000  0.4638500000000 1.0
C      1  0.5339740000000  0.5000240000000  0.5357380000000 1.0
C      1  0.4664870000000  0.5000240000000  0.4638500000000 1.0
C      1  0.5002300000000  0.4640800000000  0.4660510000000 1.0
C      1  0.5002300000000  0.4640800000000  0.5335370000000 1.0
C      1  0.5002300000000  0.5359690000000  0.5335370000000 1.0
C      1  0.4642860000000  0.4662810000000  0.4997940000000 1.0
C      1  0.5361750000000  0.5337680000000  0.4997940000000 1.0
C      1  0.4649960000000  0.4647900000000  0.5350280000000 1.0
C      1  0.5354650000000  0.4647900000000  0.4645590000000 1.0
C      1  0.4649960000000  0.5352590000000  0.4645590000000 1.0
C      1  0.4649960000000  0.5352590000000  0.5350280000000 1.0
C      1  0.5354650000000  0.5352590000000  0.4645590000000 1.0
C      1  0.5354650000000  0.4647900000000  0.5350280000000 1.0
C      1  0.5354650000000  0.5352590000000  0.5350280000000 1.0
C      1  0.4649960000000  0.4647900000000  0.4645590000000 1.0
END
