TITL C-1892084-2856-59 -1.28914988181154e-06 1000000 -2198.30430835377 0 0 320 (Th) n - 1
REM
REM in /nfs/bkarasulu/CARBON/AIRSS/Generating-Clusters/GAP-ML-2020/Higher-Symm/Selected-Sizes/TryA-Only_Ih-Symm/Larger-Clusters
REM
REM
REM
REM
REM
REM ./C.cell (2cf5181f0f1d4d5b12b972d32ad12063)
REM
REM compiler GCC version 9.2.1 20190827 (Red Hat 9.2.1-1)
REM options -cpp -mtune=generic -march=x86-64 -g -O0 -fpre-include=/usr/include/finclude/math-vector-fortran.h
REM seed 68490870 251901381 -1956230954 -487003035 -491851004 871392422 -318719278 1190720699 -1089920369 -566016060 -2066648507 456506366 325473134 -103754393 2058957682 214057313 -816299817 -1188248238 62166644 1107460279 1064438301 -979541985 807392523 145169768 -1414808456 1962858541 442268355 1251316332 -1952892437 -1763800909 1386673622 -1583315458 1407806977
REM
CELL 1.54180  100.00000  100.00000  100.00000   90.00000   90.00000   90.00000
LATT -1
SFAC C  
C      1  0.4509220000000  0.4874280000000  0.5401140000000 1.0
C      1  0.5400810000000  0.4509500000000  0.4874360000000 1.0
C      1  0.4874000000000  0.5401090000000  0.4509620000000 1.0
C      1  0.4509240000000  0.5125070000000  0.4598360000000 1.0
C      1  0.5489540000000  0.5125080000000  0.5401180000000 1.0
C      1  0.5489570000000  0.4874270000000  0.4598350000000 1.0
C      1  0.5400810000000  0.5489830000000  0.5125160000000 1.0
C      1  0.4598010000000  0.5489850000000  0.4874360000000 1.0
C      1  0.4597990000000  0.4509530000000  0.5125160000000 1.0
C      1  0.4874000000000  0.4598270000000  0.5489910000000 1.0
C      1  0.5124810000000  0.4598270000000  0.4509580000000 1.0
C      1  0.5124800000000  0.5401060000000  0.5489950000000 1.0
C      1  0.5489560000000  0.4874260000000  0.5401170000000 1.0
C      1  0.4598000000000  0.4509510000000  0.4874350000000 1.0
C      1  0.5124810000000  0.5401080000000  0.4509590000000 1.0
C      1  0.5489560000000  0.5125080000000  0.4598340000000 1.0
C      1  0.4509240000000  0.5125070000000  0.5401150000000 1.0
C      1  0.4509230000000  0.4874280000000  0.4598360000000 1.0
C      1  0.4598000000000  0.5489820000000  0.5125160000000 1.0
C      1  0.5400800000000  0.5489850000000  0.4874360000000 1.0
C      1  0.5400820000000  0.4509520000000  0.5125160000000 1.0
C      1  0.5124800000000  0.4598280000000  0.5489940000000 1.0
C      1  0.4874000000000  0.4598260000000  0.4509610000000 1.0
C      1  0.4874000000000  0.5401070000000  0.5489910000000 1.0
C      1  0.4784600000000  0.5165760000000  0.5293800000000 1.0
C      1  0.5293450000000  0.4784860000000  0.5165850000000 1.0
C      1  0.5165510000000  0.5293710000000  0.4784950000000 1.0
C      1  0.4784600000000  0.4833580000000  0.4705710000000 1.0
C      1  0.5214210000000  0.4833570000000  0.5293800000000 1.0
C      1  0.5214220000000  0.5165770000000  0.4705710000000 1.0
C      1  0.5293450000000  0.5214480000000  0.4833660000000 1.0
C      1  0.4705360000000  0.5214480000000  0.5165850000000 1.0
C      1  0.4705360000000  0.4784870000000  0.4833650000000 1.0
C      1  0.5165500000000  0.4705620000000  0.5214560000000 1.0
C      1  0.4833310000000  0.4705630000000  0.4784940000000 1.0
C      1  0.4833310000000  0.5293710000000  0.5214560000000 1.0
C      1  0.5214210000000  0.5165770000000  0.5293800000000 1.0
C      1  0.4705360000000  0.4784870000000  0.5165850000000 1.0
C      1  0.4833310000000  0.5293710000000  0.4784950000000 1.0
C      1  0.5214220000000  0.4833570000000  0.4705710000000 1.0
C      1  0.4784600000000  0.4833570000000  0.5293800000000 1.0
C      1  0.4784600000000  0.5165760000000  0.4705710000000 1.0
C      1  0.4705360000000  0.5214480000000  0.4833660000000 1.0
C      1  0.5293450000000  0.5214480000000  0.5165850000000 1.0
C      1  0.5293450000000  0.4784860000000  0.4833660000000 1.0
C      1  0.4833320000000  0.4705630000000  0.5214560000000 1.0
C      1  0.5165510000000  0.4705630000000  0.4784950000000 1.0
C      1  0.5165500000000  0.5293710000000  0.5214560000000 1.0
C      1  0.4927670000000  0.5200610000000  0.5143170000000 1.0
C      1  0.5142830000000  0.4927930000000  0.5200690000000 1.0
C      1  0.5200350000000  0.5143080000000  0.4928010000000 1.0
C      1  0.4927670000000  0.4798730000000  0.4856330000000 1.0
C      1  0.5071150000000  0.4798730000000  0.5143170000000 1.0
C      1  0.5071150000000  0.5200610000000  0.4856340000000 1.0
C      1  0.5142830000000  0.5071410000000  0.4798810000000 1.0
C      1  0.4855990000000  0.5071410000000  0.5200690000000 1.0
C      1  0.4855990000000  0.4927930000000  0.4798810000000 1.0
C      1  0.5200350000000  0.4856250000000  0.5071490000000 1.0
C      1  0.4798470000000  0.4856250000000  0.4928010000000 1.0
C      1  0.4798470000000  0.5143090000000  0.5071490000000 1.0
C      1  0.5071150000000  0.5200610000000  0.5143170000000 1.0
C      1  0.4855990000000  0.4927930000000  0.5200700000000 1.0
C      1  0.4798470000000  0.5143090000000  0.4928010000000 1.0
C      1  0.5071150000000  0.4798730000000  0.4856340000000 1.0
C      1  0.4927670000000  0.4798730000000  0.5143170000000 1.0
C      1  0.4927670000000  0.5200610000000  0.4856330000000 1.0
C      1  0.4855990000000  0.5071410000000  0.4798810000000 1.0
C      1  0.5142830000000  0.5071410000000  0.5200690000000 1.0
C      1  0.5142830000000  0.4927930000000  0.4798810000000 1.0
C      1  0.4798470000000  0.4856250000000  0.5071490000000 1.0
C      1  0.5200350000000  0.4856250000000  0.4928010000000 1.0
C      1  0.5200350000000  0.5143090000000  0.5071500000000 1.0
C      1  0.5279750000000  0.5794450000000  0.4742210000000 1.0
C      1  0.4742030000000  0.5280030000000  0.5794540000000 1.0
C      1  0.5794190000000  0.4742170000000  0.5280110000000 1.0
C      1  0.5279760000000  0.4204880000000  0.5257170000000 1.0
C      1  0.4719060000000  0.4204890000000  0.4742230000000 1.0
C      1  0.4719050000000  0.5794450000000  0.5257160000000 1.0
C      1  0.4742010000000  0.4719310000000  0.4204970000000 1.0
C      1  0.5256970000000  0.4719330000000  0.5794540000000 1.0
C      1  0.5256950000000  0.5280020000000  0.4204970000000 1.0
C      1  0.5794200000000  0.5257110000000  0.4719400000000 1.0
C      1  0.4204630000000  0.5257110000000  0.5280110000000 1.0
C      1  0.4204630000000  0.4742160000000  0.4719410000000 1.0
C      1  0.4719060000000  0.5794450000000  0.4742220000000 1.0
C      1  0.5256970000000  0.5280010000000  0.5794540000000 1.0
C      1  0.4204630000000  0.4742160000000  0.5280100000000 1.0
C      1  0.4719040000000  0.4204890000000  0.5257170000000 1.0
C      1  0.5279750000000  0.4204880000000  0.4742230000000 1.0
C      1  0.5279760000000  0.5794450000000  0.5257160000000 1.0
C      1  0.5256950000000  0.4719330000000  0.4204970000000 1.0
C      1  0.4742030000000  0.4719310000000  0.5794540000000 1.0
C      1  0.4742010000000  0.5280040000000  0.4204970000000 1.0
C      1  0.4204630000000  0.5257100000000  0.4719400000000 1.0
C      1  0.5794190000000  0.5257110000000  0.5280120000000 1.0
C      1  0.5794200000000  0.4742170000000  0.4719410000000 1.0
C      1  0.5833640000000  0.4822470000000  0.5374520000000 1.0
C      1  0.5374150000000  0.5833910000000  0.4822520000000 1.0
C      1  0.4822340000000  0.5374420000000  0.5833990000000 1.0
C      1  0.5833640000000  0.5176800000000  0.4625000000000 1.0
C      1  0.4165170000000  0.5176800000000  0.5374500000000 1.0
C      1  0.4165170000000  0.4822470000000  0.4625010000000 1.0
C      1  0.5374160000000  0.4165440000000  0.5176860000000 1.0
C      1  0.4624650000000  0.4165440000000  0.4822530000000 1.0
C      1  0.4624650000000  0.5833900000000  0.5176850000000 1.0
C      1  0.4822320000000  0.4624910000000  0.4165520000000 1.0
C      1  0.5176670000000  0.4624930000000  0.5833990000000 1.0
C      1  0.5176640000000  0.5374430000000  0.4165520000000 1.0
C      1  0.4165170000000  0.4822470000000  0.5374500000000 1.0
C      1  0.4624660000000  0.5833910000000  0.4822520000000 1.0
C      1  0.5176670000000  0.5374410000000  0.5833990000000 1.0
C      1  0.4165170000000  0.5176790000000  0.4625010000000 1.0
C      1  0.5833630000000  0.5176800000000  0.5374520000000 1.0
C      1  0.5833640000000  0.4822470000000  0.4625000000000 1.0
C      1  0.4624640000000  0.4165440000000  0.5176860000000 1.0
C      1  0.5374160000000  0.4165430000000  0.4822530000000 1.0
C      1  0.5374160000000  0.5833910000000  0.5176850000000 1.0
C      1  0.5176640000000  0.4624920000000  0.4165520000000 1.0
C      1  0.4822340000000  0.4624920000000  0.5833990000000 1.0
C      1  0.4822320000000  0.5374440000000  0.4165530000000 1.0
C      1  0.5228940000000  0.4529300000000  0.5509010000000 1.0
C      1  0.5508660000000  0.5229230000000  0.4529380000000 1.0
C      1  0.4529030000000  0.5508920000000  0.5229300000000 1.0
C      1  0.5228970000000  0.5470040000000  0.4490500000000 1.0
C      1  0.4769860000000  0.5470050000000  0.5509000000000 1.0
C      1  0.4769850000000  0.4529290000000  0.4490500000000 1.0
C      1  0.5508660000000  0.4770110000000  0.5470130000000 1.0
C      1  0.4490150000000  0.4770130000000  0.4529380000000 1.0
C      1  0.4490160000000  0.5229210000000  0.5470130000000 1.0
C      1  0.4529030000000  0.4490420000000  0.4770200000000 1.0
C      1  0.5469790000000  0.4490420000000  0.5229310000000 1.0
C      1  0.5469780000000  0.5508930000000  0.4770220000000 1.0
C      1  0.4769860000000  0.4529290000000  0.5509000000000 1.0
C      1  0.4490160000000  0.5229210000000  0.4529370000000 1.0
C      1  0.5469790000000  0.5508920000000  0.5229300000000 1.0
C      1  0.4769850000000  0.5470050000000  0.4490510000000 1.0
C      1  0.5228940000000  0.5470040000000  0.5509010000000 1.0
C      1  0.5228960000000  0.4529300000000  0.4490500000000 1.0
C      1  0.4490150000000  0.4770130000000  0.5470130000000 1.0
C      1  0.5508660000000  0.4770120000000  0.4529380000000 1.0
C      1  0.5508650000000  0.5229230000000  0.5470130000000 1.0
C      1  0.5469780000000  0.4490420000000  0.4770210000000 1.0
C      1  0.4529030000000  0.4490420000000  0.5229310000000 1.0
C      1  0.4529030000000  0.5508930000000  0.4770210000000 1.0
C      1  0.5431870000000  0.4820600000000  0.5174300000000 1.0
C      1  0.5173940000000  0.5432130000000  0.4820690000000 1.0
C      1  0.4820330000000  0.5174200000000  0.5432220000000 1.0
C      1  0.5431870000000  0.5178740000000  0.4825220000000 1.0
C      1  0.4566940000000  0.5178740000000  0.5174290000000 1.0
C      1  0.4566940000000  0.4820610000000  0.4825220000000 1.0
C      1  0.5173950000000  0.4567200000000  0.5178820000000 1.0
C      1  0.4824870000000  0.4567210000000  0.4820690000000 1.0
C      1  0.4824870000000  0.5432130000000  0.5178830000000 1.0
C      1  0.4820340000000  0.4825130000000  0.4567290000000 1.0
C      1  0.5178470000000  0.4825130000000  0.5432220000000 1.0
C      1  0.5178470000000  0.5174210000000  0.4567290000000 1.0
C      1  0.4566940000000  0.4820610000000  0.5174290000000 1.0
C      1  0.4824870000000  0.5432130000000  0.4820690000000 1.0
C      1  0.5178470000000  0.5174200000000  0.5432220000000 1.0
C      1  0.4566940000000  0.5178740000000  0.4825220000000 1.0
C      1  0.5431870000000  0.5178740000000  0.5174300000000 1.0
C      1  0.5431870000000  0.4820600000000  0.4825210000000 1.0
C      1  0.4824870000000  0.4567210000000  0.5178820000000 1.0
C      1  0.5173950000000  0.4567210000000  0.4820690000000 1.0
C      1  0.5173940000000  0.5432140000000  0.5178830000000 1.0
C      1  0.5178470000000  0.4825130000000  0.4567290000000 1.0
C      1  0.4820330000000  0.4825140000000  0.5432220000000 1.0
C      1  0.4820340000000  0.5174210000000  0.4567290000000 1.0
C      1  0.4349740000000  0.5288720000000  0.4926530000000 1.0
C      1  0.4926180000000  0.4349990000000  0.5288770000000 1.0
C      1  0.5288490000000  0.4926450000000  0.4350110000000 1.0
C      1  0.4349760000000  0.4710580000000  0.5072970000000 1.0
C      1  0.5649070000000  0.4710610000000  0.4926540000000 1.0
C      1  0.5649090000000  0.5288690000000  0.5072980000000 1.0
C      1  0.4926190000000  0.5649310000000  0.4710660000000 1.0
C      1  0.5072630000000  0.5649350000000  0.5288780000000 1.0
C      1  0.5072620000000  0.4350020000000  0.4710670000000 1.0
C      1  0.5288520000000  0.5072890000000  0.5649380000000 1.0
C      1  0.4710410000000  0.5072890000000  0.4350070000000 1.0
C      1  0.4710400000000  0.4926450000000  0.5649440000000 1.0
C      1  0.5649090000000  0.5288690000000  0.4926540000000 1.0
C      1  0.5072620000000  0.4349990000000  0.5288770000000 1.0
C      1  0.4710400000000  0.4926450000000  0.4350070000000 1.0
C      1  0.5649070000000  0.4710610000000  0.5072980000000 1.0
C      1  0.4349760000000  0.4710580000000  0.4926530000000 1.0
C      1  0.4349740000000  0.5288710000000  0.5072970000000 1.0
C      1  0.5072630000000  0.5649310000000  0.4710660000000 1.0
C      1  0.4926190000000  0.5649350000000  0.5288770000000 1.0
C      1  0.4926190000000  0.4350020000000  0.4710680000000 1.0
C      1  0.4710400000000  0.5072890000000  0.5649440000000 1.0
C      1  0.5288490000000  0.5072890000000  0.4350110000000 1.0
C      1  0.5288520000000  0.4926450000000  0.5649380000000 1.0
C      1  0.5064530000000  0.4567320000000  0.5854230000000 1.0
C      1  0.5853870000000  0.5064660000000  0.4567380000000 1.0
C      1  0.4567040000000  0.5854140000000  0.5064720000000 1.0
C      1  0.5064510000000  0.5432040000000  0.4145300000000 1.0
C      1  0.4934470000000  0.5432040000000  0.5854230000000 1.0
C      1  0.4934450000000  0.4567300000000  0.4145290000000 1.0
C      1  0.5853860000000  0.4934610000000  0.5432130000000 1.0
C      1  0.4144930000000  0.4934600000000  0.4567400000000 1.0
C      1  0.4144930000000  0.5064660000000  0.5432120000000 1.0
C      1  0.4567040000000  0.4145210000000  0.4934670000000 1.0
C      1  0.5431780000000  0.4145200000000  0.5064730000000 1.0
C      1  0.5431760000000  0.5854140000000  0.4934660000000 1.0
C      1  0.4934470000000  0.4567300000000  0.5854230000000 1.0
C      1  0.4144930000000  0.5064660000000  0.4567390000000 1.0
C      1  0.5431770000000  0.5854140000000  0.5064710000000 1.0
C      1  0.4934450000000  0.5432050000000  0.4145300000000 1.0
C      1  0.5064530000000  0.5432020000000  0.5854230000000 1.0
C      1  0.5064510000000  0.4567310000000  0.4145290000000 1.0
C      1  0.4144930000000  0.4934600000000  0.5432110000000 1.0
C      1  0.5853870000000  0.4934610000000  0.4567390000000 1.0
C      1  0.5853860000000  0.5064670000000  0.5432140000000 1.0
C      1  0.5431770000000  0.4145200000000  0.4934670000000 1.0
C      1  0.4567030000000  0.4145210000000  0.5064730000000 1.0
C      1  0.4567050000000  0.5854140000000  0.4934660000000 1.0
C      1  0.4770940000000  0.4926910000000  0.4485470000000 1.0
C      1  0.4485130000000  0.4771180000000  0.4926990000000 1.0
C      1  0.4926640000000  0.4485390000000  0.4771270000000 1.0
C      1  0.4770920000000  0.5072440000000  0.5514040000000 1.0
C      1  0.5227890000000  0.5072440000000  0.4485480000000 1.0
C      1  0.5227900000000  0.4926900000000  0.5514030000000 1.0
C      1  0.4485130000000  0.5228160000000  0.5072520000000 1.0
C      1  0.5513690000000  0.5228140000000  0.4926990000000 1.0
C      1  0.5513690000000  0.4771200000000  0.5072530000000 1.0
C      1  0.4926640000000  0.5513950000000  0.5228240000000 1.0
C      1  0.5072170000000  0.5513940000000  0.4771260000000 1.0
C      1  0.5072170000000  0.4485390000000  0.5228230000000 1.0
C      1  0.5227890000000  0.4926910000000  0.4485480000000 1.0
C      1  0.5513690000000  0.4771190000000  0.4926990000000 1.0
C      1  0.5072170000000  0.4485400000000  0.4771270000000 1.0
C      1  0.5227900000000  0.5072440000000  0.5514030000000 1.0
C      1  0.4770940000000  0.5072440000000  0.4485470000000 1.0
C      1  0.4770920000000  0.4926900000000  0.5514040000000 1.0
C      1  0.5513690000000  0.5228140000000  0.5072530000000 1.0
C      1  0.4485130000000  0.5228160000000  0.4926990000000 1.0
C      1  0.4485130000000  0.4771180000000  0.5072520000000 1.0
C      1  0.5072170000000  0.5513950000000  0.5228240000000 1.0
C      1  0.4926640000000  0.5513940000000  0.4771270000000 1.0
C      1  0.4926640000000  0.4485390000000  0.5228230000000 1.0
C      1  0.4265840000000  0.4701300000000  0.5177260000000 1.0
C      1  0.5176910000000  0.4266090000000  0.4701370000000 1.0
C      1  0.4701120000000  0.5177190000000  0.4266150000000 1.0
C      1  0.4265820000000  0.5297990000000  0.4822240000000 1.0
C      1  0.5733000000000  0.5297990000000  0.5177270000000 1.0
C      1  0.5732990000000  0.4701310000000  0.4822250000000 1.0
C      1  0.5176920000000  0.5733270000000  0.5298060000000 1.0
C      1  0.4821900000000  0.5733240000000  0.4701360000000 1.0
C      1  0.4821890000000  0.4266070000000  0.5298060000000 1.0
C      1  0.4701120000000  0.4822150000000  0.5733360000000 1.0
C      1  0.5297800000000  0.4822170000000  0.4266180000000 1.0
C      1  0.5297820000000  0.5177170000000  0.5733320000000 1.0
C      1  0.5732990000000  0.4701310000000  0.5177270000000 1.0
C      1  0.4821900000000  0.4266100000000  0.4701370000000 1.0
C      1  0.5297800000000  0.5177180000000  0.4266180000000 1.0
C      1  0.5733010000000  0.5297990000000  0.4822250000000 1.0
C      1  0.4265820000000  0.5297990000000  0.5177270000000 1.0
C      1  0.4265830000000  0.4701290000000  0.4822250000000 1.0
C      1  0.4821890000000  0.5733270000000  0.5298060000000 1.0
C      1  0.5176910000000  0.5733240000000  0.4701360000000 1.0
C      1  0.5176920000000  0.4266070000000  0.5298060000000 1.0
C      1  0.5297820000000  0.4822170000000  0.5733320000000 1.0
C      1  0.4701120000000  0.4822160000000  0.4266150000000 1.0
C      1  0.4701120000000  0.5177190000000  0.5733360000000 1.0
C      1  0.5518360000000  0.4652350000000  0.5519040000000 1.0
C      1  0.5518700000000  0.5518620000000  0.4652460000000 1.0
C      1  0.4652100000000  0.5518950000000  0.5518710000000 1.0
C      1  0.5518380000000  0.5346990000000  0.4480470000000 1.0
C      1  0.4480460000000  0.5346970000000  0.5519040000000 1.0
C      1  0.4480460000000  0.4652370000000  0.4480470000000 1.0
C      1  0.5518700000000  0.4480700000000  0.5347070000000 1.0
C      1  0.4480130000000  0.4480720000000  0.4652440000000 1.0
C      1  0.4480130000000  0.5518630000000  0.5347070000000 1.0
C      1  0.4652090000000  0.4480380000000  0.4480780000000 1.0
C      1  0.5346700000000  0.4480380000000  0.5518700000000 1.0
C      1  0.5346730000000  0.5518960000000  0.4480800000000 1.0
C      1  0.4480460000000  0.4652370000000  0.5519030000000 1.0
C      1  0.4480130000000  0.5518610000000  0.4652450000000 1.0
C      1  0.5346710000000  0.5518950000000  0.5518700000000 1.0
C      1  0.4480450000000  0.5346970000000  0.4480470000000 1.0
C      1  0.5518370000000  0.5346990000000  0.5519040000000 1.0
C      1  0.5518370000000  0.4652360000000  0.4480470000000 1.0
C      1  0.4480120000000  0.4480710000000  0.5347070000000 1.0
C      1  0.5518700000000  0.4480710000000  0.4652450000000 1.0
C      1  0.5518700000000  0.5518640000000  0.5347060000000 1.0
C      1  0.5346720000000  0.4480380000000  0.4480800000000 1.0
C      1  0.4652100000000  0.4480380000000  0.5518720000000 1.0
C      1  0.4652090000000  0.5518960000000  0.4480790000000 1.0
C      1  0.5276750000000  0.4530180000000  0.5071360000000 1.0
C      1  0.5071010000000  0.5277020000000  0.4530270000000 1.0
C      1  0.4529920000000  0.5071280000000  0.5277080000000 1.0
C      1  0.5276740000000  0.5469160000000  0.4928150000000 1.0
C      1  0.4722070000000  0.5469160000000  0.5071370000000 1.0
C      1  0.4722060000000  0.4530190000000  0.4928150000000 1.0
C      1  0.5071000000000  0.4722340000000  0.5469250000000 1.0
C      1  0.4927800000000  0.4722320000000  0.4530270000000 1.0
C      1  0.4927790000000  0.5277010000000  0.5469240000000 1.0
C      1  0.4529910000000  0.4928070000000  0.4722420000000 1.0
C      1  0.5468880000000  0.4928070000000  0.5277110000000 1.0
C      1  0.5468890000000  0.5071280000000  0.4722410000000 1.0
C      1  0.4722060000000  0.4530190000000  0.5071360000000 1.0
C      1  0.4927800000000  0.5277030000000  0.4530280000000 1.0
C      1  0.5468880000000  0.5071280000000  0.5277110000000 1.0
C      1  0.4722070000000  0.5469160000000  0.4928150000000 1.0
C      1  0.5276740000000  0.5469160000000  0.5071370000000 1.0
C      1  0.5276750000000  0.4530180000000  0.4928150000000 1.0
C      1  0.4927790000000  0.4722330000000  0.5469240000000 1.0
C      1  0.5071010000000  0.4722320000000  0.4530270000000 1.0
C      1  0.5071010000000  0.5277000000000  0.5469250000000 1.0
C      1  0.5468890000000  0.4928070000000  0.4722410000000 1.0
C      1  0.4529910000000  0.4928070000000  0.5277080000000 1.0
C      1  0.4529910000000  0.5071280000000  0.4722420000000 1.0
C      1  0.5472470000000  0.4526600000000  0.5472820000000 1.0
C      1  0.5472480000000  0.5472740000000  0.4526700000000 1.0
C      1  0.4526340000000  0.4526610000000  0.5472820000000 1.0
C      1  0.4526340000000  0.5472730000000  0.4526690000000 1.0
C      1  0.4526340000000  0.5472730000000  0.5472820000000 1.0
C      1  0.5472480000000  0.4526600000000  0.4526690000000 1.0
C      1  0.4526340000000  0.4526610000000  0.4526680000000 1.0
C      1  0.5472470000000  0.5472740000000  0.5472820000000 1.0
END
