TITL C-1892073-1155-83 1.41224323566259e-07 1000000 -2907.43877352655 0 0 420 (Td) n - 1
REM
REM in /nfs/bkarasulu/CARBON/AIRSS/Generating-Clusters/GAP-ML-2020/Higher-Symm/Selected-Sizes/TryA-Only_Ih-Symm/Larger-Clusters
REM
REM
REM
REM
REM
REM ./C.cell (2cf5181f0f1d4d5b12b972d32ad12063)
REM
REM compiler GCC version 9.2.1 20190827 (Red Hat 9.2.1-1)
REM options -cpp -mtune=generic -march=x86-64 -g -O0 -fpre-include=/usr/include/finclude/math-vector-fortran.h
REM seed 1495415403 435665784 -1144204376 -168770100 284042754 -441094629 -890223225 -1543309151 1801387365 -1700046604 804094511 -425603689 1849326980 1439721707 -839228120 552092146 309715326 997592465 328543998 -507556699 1125510626 2061085556 1943955486 1458979546 -1644451853 -1129951339 1463919926 -737737267 -33986087 369834850 -2009234244 -1827009164 -137071383
REM
CELL 1.54180  100.00000  100.00000  100.00000   90.00000   90.00000   90.00000
LATT -1
SFAC C  
C      1  0.4370230000000  0.5529480000000  0.4879620000000 1.0
C      1  0.5529480000000  0.4879620000000  0.4370230000000 1.0
C      1  0.4879620000000  0.4370230000000  0.5529480000000 1.0
C      1  0.5629770000000  0.4470520000000  0.4879620000000 1.0
C      1  0.4370230000000  0.4470520000000  0.5120380000000 1.0
C      1  0.5629770000000  0.5529480000000  0.5120380000000 1.0
C      1  0.4470520000000  0.5120380000000  0.4370230000000 1.0
C      1  0.5529480000000  0.5120380000000  0.5629770000000 1.0
C      1  0.4470520000000  0.4879620000000  0.5629770000000 1.0
C      1  0.5120380000000  0.5629770000000  0.5529480000000 1.0
C      1  0.4879620000000  0.5629770000000  0.4470520000000 1.0
C      1  0.5120380000000  0.4370230000000  0.4470520000000 1.0
C      1  0.5529480000000  0.4370230000000  0.4879620000000 1.0
C      1  0.4879620000000  0.5529480000000  0.4370230000000 1.0
C      1  0.4370230000000  0.4879620000000  0.5529480000000 1.0
C      1  0.4470520000000  0.5629770000000  0.4879620000000 1.0
C      1  0.4470520000000  0.4370230000000  0.5120380000000 1.0
C      1  0.5529480000000  0.5629770000000  0.5120380000000 1.0
C      1  0.5120380000000  0.4470520000000  0.4370230000000 1.0
C      1  0.5120380000000  0.5529480000000  0.5629770000000 1.0
C      1  0.4879620000000  0.4470520000000  0.5629770000000 1.0
C      1  0.5629770000000  0.5120380000000  0.5529480000000 1.0
C      1  0.5629770000000  0.4879620000000  0.4470520000000 1.0
C      1  0.4370230000000  0.5120380000000  0.4470520000000 1.0
C      1  0.4873890000000  0.5656760000000  0.4770870000000 1.0
C      1  0.5656760000000  0.4770870000000  0.4873890000000 1.0
C      1  0.4770870000000  0.4873890000000  0.5656760000000 1.0
C      1  0.5126110000000  0.4343240000000  0.4770870000000 1.0
C      1  0.4873890000000  0.4343240000000  0.5229130000000 1.0
C      1  0.5126110000000  0.5656760000000  0.5229130000000 1.0
C      1  0.4343240000000  0.5229130000000  0.4873890000000 1.0
C      1  0.5656760000000  0.5229130000000  0.5126110000000 1.0
C      1  0.4343240000000  0.4770870000000  0.5126110000000 1.0
C      1  0.5229130000000  0.5126110000000  0.5656760000000 1.0
C      1  0.4770870000000  0.5126110000000  0.4343240000000 1.0
C      1  0.5229130000000  0.4873890000000  0.4343240000000 1.0
C      1  0.5656760000000  0.4873890000000  0.4770870000000 1.0
C      1  0.4770870000000  0.5656760000000  0.4873890000000 1.0
C      1  0.4873890000000  0.4770870000000  0.5656760000000 1.0
C      1  0.4343240000000  0.5126110000000  0.4770870000000 1.0
C      1  0.4343240000000  0.4873890000000  0.5229130000000 1.0
C      1  0.5656760000000  0.5126110000000  0.5229130000000 1.0
C      1  0.5229130000000  0.4343240000000  0.4873890000000 1.0
C      1  0.5229130000000  0.5656760000000  0.5126110000000 1.0
C      1  0.4770870000000  0.4343240000000  0.5126110000000 1.0
C      1  0.5126110000000  0.5229130000000  0.5656760000000 1.0
C      1  0.5126110000000  0.4770870000000  0.4343240000000 1.0
C      1  0.4873890000000  0.5229130000000  0.4343240000000 1.0
C      1  0.4340980000000  0.4848670000000  0.4748100000000 1.0
C      1  0.4848670000000  0.4748100000000  0.4340980000000 1.0
C      1  0.4748100000000  0.4340980000000  0.4848670000000 1.0
C      1  0.5659020000000  0.5151330000000  0.4748100000000 1.0
C      1  0.4340980000000  0.5151330000000  0.5251900000000 1.0
C      1  0.5659020000000  0.4848670000000  0.5251900000000 1.0
C      1  0.5151330000000  0.5251900000000  0.4340980000000 1.0
C      1  0.4848670000000  0.5251900000000  0.5659020000000 1.0
C      1  0.5151330000000  0.4748100000000  0.5659020000000 1.0
C      1  0.5251900000000  0.5659020000000  0.4848670000000 1.0
C      1  0.4748100000000  0.5659020000000  0.5151330000000 1.0
C      1  0.5251900000000  0.4340980000000  0.5151330000000 1.0
C      1  0.4848670000000  0.4340980000000  0.4748100000000 1.0
C      1  0.4748100000000  0.4848670000000  0.4340980000000 1.0
C      1  0.4340980000000  0.4748100000000  0.4848670000000 1.0
C      1  0.5151330000000  0.5659020000000  0.4748100000000 1.0
C      1  0.5151330000000  0.4340980000000  0.5251900000000 1.0
C      1  0.4848670000000  0.5659020000000  0.5251900000000 1.0
C      1  0.5251900000000  0.5151330000000  0.4340980000000 1.0
C      1  0.5251900000000  0.4848670000000  0.5659020000000 1.0
C      1  0.4748100000000  0.5151330000000  0.5659020000000 1.0
C      1  0.5659020000000  0.5251900000000  0.4848670000000 1.0
C      1  0.5659020000000  0.4748100000000  0.5151330000000 1.0
C      1  0.4340980000000  0.5251900000000  0.5151330000000 1.0
C      1  0.5225820000000  0.5605270000000  0.4484500000000 1.0
C      1  0.5605270000000  0.4484500000000  0.5225820000000 1.0
C      1  0.4484500000000  0.5225820000000  0.5605270000000 1.0
C      1  0.4774180000000  0.4394730000000  0.4484500000000 1.0
C      1  0.5225820000000  0.4394730000000  0.5515500000000 1.0
C      1  0.4774180000000  0.5605270000000  0.5515500000000 1.0
C      1  0.4394730000000  0.5515500000000  0.5225820000000 1.0
C      1  0.5605270000000  0.5515500000000  0.4774180000000 1.0
C      1  0.4394730000000  0.4484500000000  0.4774180000000 1.0
C      1  0.5515500000000  0.4774180000000  0.5605270000000 1.0
C      1  0.4484500000000  0.4774180000000  0.4394730000000 1.0
C      1  0.5515500000000  0.5225820000000  0.4394730000000 1.0
C      1  0.5605270000000  0.5225820000000  0.4484500000000 1.0
C      1  0.4484500000000  0.5605270000000  0.5225820000000 1.0
C      1  0.5225820000000  0.4484500000000  0.5605270000000 1.0
C      1  0.4394730000000  0.4774180000000  0.4484500000000 1.0
C      1  0.4394730000000  0.5225820000000  0.5515500000000 1.0
C      1  0.5605270000000  0.4774180000000  0.5515500000000 1.0
C      1  0.5515500000000  0.4394730000000  0.5225820000000 1.0
C      1  0.5515500000000  0.5605270000000  0.4774180000000 1.0
C      1  0.4484500000000  0.4394730000000  0.4774180000000 1.0
C      1  0.4774180000000  0.5515500000000  0.5605270000000 1.0
C      1  0.4774180000000  0.4484500000000  0.4394730000000 1.0
C      1  0.5225820000000  0.5515500000000  0.4394730000000 1.0
C      1  0.5498800000000  0.4999730000000  0.5107600000000 1.0
C      1  0.4999730000000  0.5107600000000  0.5498800000000 1.0
C      1  0.5107600000000  0.5498800000000  0.4999730000000 1.0
C      1  0.4501200000000  0.5000270000000  0.5107600000000 1.0
C      1  0.5498800000000  0.5000270000000  0.4892400000000 1.0
C      1  0.4501200000000  0.4999730000000  0.4892400000000 1.0
C      1  0.5000270000000  0.4892400000000  0.5498800000000 1.0
C      1  0.4999730000000  0.4892400000000  0.4501200000000 1.0
C      1  0.5000270000000  0.5107600000000  0.4501200000000 1.0
C      1  0.4892400000000  0.4501200000000  0.4999730000000 1.0
C      1  0.5107600000000  0.4501200000000  0.5000270000000 1.0
C      1  0.4892400000000  0.5498800000000  0.5000270000000 1.0
C      1  0.4999730000000  0.5498800000000  0.5107600000000 1.0
C      1  0.5107600000000  0.4999730000000  0.5498800000000 1.0
C      1  0.5498800000000  0.5107600000000  0.4999730000000 1.0
C      1  0.5000270000000  0.4501200000000  0.5107600000000 1.0
C      1  0.5000270000000  0.5498800000000  0.4892400000000 1.0
C      1  0.4999730000000  0.4501200000000  0.4892400000000 1.0
C      1  0.4892400000000  0.5000270000000  0.5498800000000 1.0
C      1  0.4892400000000  0.4999730000000  0.4501200000000 1.0
C      1  0.5107600000000  0.5000270000000  0.4501200000000 1.0
C      1  0.4501200000000  0.4892400000000  0.4999730000000 1.0
C      1  0.4501200000000  0.5107600000000  0.5000270000000 1.0
C      1  0.5498800000000  0.4892400000000  0.5000270000000 1.0
C      1  0.5186780000000  0.5637640000000  0.4989670000000 1.0
C      1  0.5637640000000  0.4989670000000  0.5186780000000 1.0
C      1  0.4989670000000  0.5186780000000  0.5637640000000 1.0
C      1  0.4813220000000  0.4362360000000  0.4989670000000 1.0
C      1  0.5186780000000  0.4362360000000  0.5010330000000 1.0
C      1  0.4813220000000  0.5637640000000  0.5010330000000 1.0
C      1  0.4362360000000  0.5010330000000  0.5186780000000 1.0
C      1  0.5637640000000  0.5010330000000  0.4813220000000 1.0
C      1  0.4362360000000  0.4989670000000  0.4813220000000 1.0
C      1  0.5010330000000  0.4813220000000  0.5637640000000 1.0
C      1  0.4989670000000  0.4813220000000  0.4362360000000 1.0
C      1  0.5010330000000  0.5186780000000  0.4362360000000 1.0
C      1  0.5637640000000  0.5186780000000  0.4989670000000 1.0
C      1  0.4989670000000  0.5637640000000  0.5186780000000 1.0
C      1  0.5186780000000  0.4989670000000  0.5637640000000 1.0
C      1  0.4362360000000  0.4813220000000  0.4989670000000 1.0
C      1  0.4362360000000  0.5186780000000  0.5010330000000 1.0
C      1  0.5637640000000  0.4813220000000  0.5010330000000 1.0
C      1  0.5010330000000  0.4362360000000  0.5186780000000 1.0
C      1  0.5010330000000  0.5637640000000  0.4813220000000 1.0
C      1  0.4989670000000  0.4362360000000  0.4813220000000 1.0
C      1  0.4813220000000  0.5010330000000  0.5637640000000 1.0
C      1  0.4813220000000  0.4989670000000  0.4362360000000 1.0
C      1  0.5186780000000  0.5010330000000  0.4362360000000 1.0
C      1  0.4647330000000  0.4849550000000  0.5251120000000 1.0
C      1  0.4849550000000  0.5251120000000  0.4647330000000 1.0
C      1  0.5251120000000  0.4647330000000  0.4849550000000 1.0
C      1  0.5352670000000  0.5150450000000  0.5251120000000 1.0
C      1  0.4647330000000  0.5150450000000  0.4748880000000 1.0
C      1  0.5352670000000  0.4849550000000  0.4748880000000 1.0
C      1  0.5150450000000  0.4748880000000  0.4647330000000 1.0
C      1  0.4849550000000  0.4748880000000  0.5352670000000 1.0
C      1  0.5150450000000  0.5251120000000  0.5352670000000 1.0
C      1  0.4748880000000  0.5352670000000  0.4849550000000 1.0
C      1  0.5251120000000  0.5352670000000  0.5150450000000 1.0
C      1  0.4748880000000  0.4647330000000  0.5150450000000 1.0
C      1  0.4849550000000  0.4647330000000  0.5251120000000 1.0
C      1  0.5251120000000  0.4849550000000  0.4647330000000 1.0
C      1  0.4647330000000  0.5251120000000  0.4849550000000 1.0
C      1  0.5150450000000  0.5352670000000  0.5251120000000 1.0
C      1  0.5150450000000  0.4647330000000  0.4748880000000 1.0
C      1  0.4849550000000  0.5352670000000  0.4748880000000 1.0
C      1  0.4748880000000  0.5150450000000  0.4647330000000 1.0
C      1  0.4748880000000  0.4849550000000  0.5352670000000 1.0
C      1  0.5251120000000  0.5150450000000  0.5352670000000 1.0
C      1  0.5352670000000  0.4748880000000  0.4849550000000 1.0
C      1  0.5352670000000  0.5251120000000  0.5150450000000 1.0
C      1  0.4647330000000  0.4748880000000  0.5150450000000 1.0
C      1  0.5346120000000  0.5172490000000  0.5721550000000 1.0
C      1  0.5172490000000  0.5721550000000  0.5346120000000 1.0
C      1  0.5721550000000  0.5346120000000  0.5172490000000 1.0
C      1  0.4653880000000  0.4827510000000  0.5721550000000 1.0
C      1  0.5346120000000  0.4827510000000  0.4278450000000 1.0
C      1  0.4653880000000  0.5172490000000  0.4278450000000 1.0
C      1  0.4827510000000  0.4278450000000  0.5346120000000 1.0
C      1  0.5172490000000  0.4278450000000  0.4653880000000 1.0
C      1  0.4827510000000  0.5721550000000  0.4653880000000 1.0
C      1  0.4278450000000  0.4653880000000  0.5172490000000 1.0
C      1  0.5721550000000  0.4653880000000  0.4827510000000 1.0
C      1  0.4278450000000  0.5346120000000  0.4827510000000 1.0
C      1  0.5172490000000  0.5346120000000  0.5721550000000 1.0
C      1  0.5721550000000  0.5172490000000  0.5346120000000 1.0
C      1  0.5346120000000  0.5721550000000  0.5172490000000 1.0
C      1  0.4827510000000  0.4653880000000  0.5721550000000 1.0
C      1  0.4827510000000  0.5346120000000  0.4278450000000 1.0
C      1  0.5172490000000  0.4653880000000  0.4278450000000 1.0
C      1  0.4278450000000  0.4827510000000  0.5346120000000 1.0
C      1  0.4278450000000  0.5172490000000  0.4653880000000 1.0
C      1  0.5721550000000  0.4827510000000  0.4653880000000 1.0
C      1  0.4653880000000  0.4278450000000  0.5172490000000 1.0
C      1  0.4653880000000  0.5721550000000  0.4827510000000 1.0
C      1  0.5346120000000  0.4278450000000  0.4827510000000 1.0
C      1  0.4914890000000  0.5284850000000  0.5387750000000 1.0
C      1  0.5284850000000  0.5387750000000  0.4914890000000 1.0
C      1  0.5387750000000  0.4914890000000  0.5284850000000 1.0
C      1  0.5085110000000  0.4715150000000  0.5387750000000 1.0
C      1  0.4914890000000  0.4715150000000  0.4612250000000 1.0
C      1  0.5085110000000  0.5284850000000  0.4612250000000 1.0
C      1  0.4715150000000  0.4612250000000  0.4914890000000 1.0
C      1  0.5284850000000  0.4612250000000  0.5085110000000 1.0
C      1  0.4715150000000  0.5387750000000  0.5085110000000 1.0
C      1  0.4612250000000  0.5085110000000  0.5284850000000 1.0
C      1  0.5387750000000  0.5085110000000  0.4715150000000 1.0
C      1  0.4612250000000  0.4914890000000  0.4715150000000 1.0
C      1  0.5284850000000  0.4914890000000  0.5387750000000 1.0
C      1  0.5387750000000  0.5284850000000  0.4914890000000 1.0
C      1  0.4914890000000  0.5387750000000  0.5284850000000 1.0
C      1  0.4715150000000  0.5085110000000  0.5387750000000 1.0
C      1  0.4715150000000  0.4914890000000  0.4612250000000 1.0
C      1  0.5284850000000  0.5085110000000  0.4612250000000 1.0
C      1  0.4612250000000  0.4715150000000  0.4914890000000 1.0
C      1  0.4612250000000  0.5284850000000  0.5085110000000 1.0
C      1  0.5387750000000  0.4715150000000  0.5085110000000 1.0
C      1  0.5085110000000  0.4612250000000  0.5284850000000 1.0
C      1  0.5085110000000  0.5387750000000  0.4715150000000 1.0
C      1  0.4914890000000  0.4612250000000  0.4715150000000 1.0
C      1  0.4613560000000  0.5081240000000  0.5489370000000 1.0
C      1  0.5081240000000  0.5489370000000  0.4613560000000 1.0
C      1  0.5489370000000  0.4613560000000  0.5081240000000 1.0
C      1  0.5386440000000  0.4918760000000  0.5489370000000 1.0
C      1  0.4613560000000  0.4918760000000  0.4510630000000 1.0
C      1  0.5386440000000  0.5081240000000  0.4510630000000 1.0
C      1  0.4918760000000  0.4510630000000  0.4613560000000 1.0
C      1  0.5081240000000  0.4510630000000  0.5386440000000 1.0
C      1  0.4918760000000  0.5489370000000  0.5386440000000 1.0
C      1  0.4510630000000  0.5386440000000  0.5081240000000 1.0
C      1  0.5489370000000  0.5386440000000  0.4918760000000 1.0
C      1  0.4510630000000  0.4613560000000  0.4918760000000 1.0
C      1  0.5081240000000  0.4613560000000  0.5489370000000 1.0
C      1  0.5489370000000  0.5081240000000  0.4613560000000 1.0
C      1  0.4613560000000  0.5489370000000  0.5081240000000 1.0
C      1  0.4918760000000  0.5386440000000  0.5489370000000 1.0
C      1  0.4918760000000  0.4613560000000  0.4510630000000 1.0
C      1  0.5081240000000  0.5386440000000  0.4510630000000 1.0
C      1  0.4510630000000  0.4918760000000  0.4613560000000 1.0
C      1  0.4510630000000  0.5081240000000  0.5386440000000 1.0
C      1  0.5489370000000  0.4918760000000  0.5386440000000 1.0
C      1  0.5386440000000  0.4510630000000  0.5081240000000 1.0
C      1  0.5386440000000  0.5489370000000  0.4918760000000 1.0
C      1  0.4613560000000  0.4510630000000  0.4918760000000 1.0
C      1  0.4886680000000  0.5224720000000  0.5001020000000 1.0
C      1  0.5224720000000  0.5001020000000  0.4886680000000 1.0
C      1  0.5001020000000  0.4886680000000  0.5224720000000 1.0
C      1  0.5113320000000  0.4775280000000  0.5001020000000 1.0
C      1  0.4886680000000  0.4775280000000  0.4998980000000 1.0
C      1  0.5113320000000  0.5224720000000  0.4998980000000 1.0
C      1  0.4775280000000  0.4998980000000  0.4886680000000 1.0
C      1  0.5224720000000  0.4998980000000  0.5113320000000 1.0
C      1  0.4775280000000  0.5001020000000  0.5113320000000 1.0
C      1  0.4998980000000  0.5113320000000  0.5224720000000 1.0
C      1  0.5001020000000  0.5113320000000  0.4775280000000 1.0
C      1  0.4998980000000  0.4886680000000  0.4775280000000 1.0
C      1  0.5224720000000  0.4886680000000  0.5001020000000 1.0
C      1  0.5001020000000  0.5224720000000  0.4886680000000 1.0
C      1  0.4886680000000  0.5001020000000  0.5224720000000 1.0
C      1  0.4775280000000  0.5113320000000  0.5001020000000 1.0
C      1  0.4775280000000  0.4886680000000  0.4998980000000 1.0
C      1  0.5224720000000  0.5113320000000  0.4998980000000 1.0
C      1  0.4998980000000  0.4775280000000  0.4886680000000 1.0
C      1  0.4998980000000  0.5224720000000  0.5113320000000 1.0
C      1  0.5001020000000  0.4775280000000  0.5113320000000 1.0
C      1  0.5113320000000  0.4998980000000  0.5224720000000 1.0
C      1  0.5113320000000  0.5001020000000  0.4775280000000 1.0
C      1  0.4886680000000  0.4998980000000  0.4775280000000 1.0
C      1  0.4628910000000  0.5186840000000  0.4986410000000 1.0
C      1  0.5186840000000  0.4986410000000  0.4628910000000 1.0
C      1  0.4986410000000  0.4628910000000  0.5186840000000 1.0
C      1  0.5371090000000  0.4813160000000  0.4986410000000 1.0
C      1  0.4628910000000  0.4813160000000  0.5013590000000 1.0
C      1  0.5371090000000  0.5186840000000  0.5013590000000 1.0
C      1  0.4813160000000  0.5013590000000  0.4628910000000 1.0
C      1  0.5186840000000  0.5013590000000  0.5371090000000 1.0
C      1  0.4813160000000  0.4986410000000  0.5371090000000 1.0
C      1  0.5013590000000  0.5371090000000  0.5186840000000 1.0
C      1  0.4986410000000  0.5371090000000  0.4813160000000 1.0
C      1  0.5013590000000  0.4628910000000  0.4813160000000 1.0
C      1  0.5186840000000  0.4628910000000  0.4986410000000 1.0
C      1  0.4986410000000  0.5186840000000  0.4628910000000 1.0
C      1  0.4628910000000  0.4986410000000  0.5186840000000 1.0
C      1  0.4813160000000  0.5371090000000  0.4986410000000 1.0
C      1  0.4813160000000  0.4628910000000  0.5013590000000 1.0
C      1  0.5186840000000  0.5371090000000  0.5013590000000 1.0
C      1  0.5013590000000  0.4813160000000  0.4628910000000 1.0
C      1  0.5013590000000  0.5186840000000  0.5371090000000 1.0
C      1  0.4986410000000  0.4813160000000  0.5371090000000 1.0
C      1  0.5371090000000  0.5013590000000  0.5186840000000 1.0
C      1  0.5371090000000  0.4986410000000  0.4813160000000 1.0
C      1  0.4628910000000  0.5013590000000  0.4813160000000 1.0
C      1  0.5607310000000  0.5157600000000  0.4609460000000 1.0
C      1  0.5157600000000  0.4609460000000  0.5607310000000 1.0
C      1  0.4609460000000  0.5607310000000  0.5157600000000 1.0
C      1  0.4392690000000  0.4842400000000  0.4609460000000 1.0
C      1  0.5607310000000  0.4842400000000  0.5390540000000 1.0
C      1  0.4392690000000  0.5157600000000  0.5390540000000 1.0
C      1  0.4842400000000  0.5390540000000  0.5607310000000 1.0
C      1  0.5157600000000  0.5390540000000  0.4392690000000 1.0
C      1  0.4842400000000  0.4609460000000  0.4392690000000 1.0
C      1  0.5390540000000  0.4392690000000  0.5157600000000 1.0
C      1  0.4609460000000  0.4392690000000  0.4842400000000 1.0
C      1  0.5390540000000  0.5607310000000  0.4842400000000 1.0
C      1  0.5157600000000  0.5607310000000  0.4609460000000 1.0
C      1  0.4609460000000  0.5157600000000  0.5607310000000 1.0
C      1  0.5607310000000  0.4609460000000  0.5157600000000 1.0
C      1  0.4842400000000  0.4392690000000  0.4609460000000 1.0
C      1  0.4842400000000  0.5607310000000  0.5390540000000 1.0
C      1  0.5157600000000  0.4392690000000  0.5390540000000 1.0
C      1  0.5390540000000  0.4842400000000  0.5607310000000 1.0
C      1  0.5390540000000  0.5157600000000  0.4392690000000 1.0
C      1  0.4609460000000  0.4842400000000  0.4392690000000 1.0
C      1  0.4392690000000  0.5390540000000  0.5157600000000 1.0
C      1  0.4392690000000  0.4609460000000  0.4842400000000 1.0
C      1  0.5607310000000  0.5390540000000  0.4842400000000 1.0
C      1  0.5439300000000  0.5337030000000  0.5542310000000 1.0
C      1  0.5337030000000  0.5542310000000  0.5439300000000 1.0
C      1  0.5542310000000  0.5439300000000  0.5337030000000 1.0
C      1  0.4560700000000  0.4662970000000  0.5542310000000 1.0
C      1  0.5439300000000  0.4662970000000  0.4457690000000 1.0
C      1  0.4560700000000  0.5337030000000  0.4457690000000 1.0
C      1  0.4662970000000  0.4457690000000  0.5439300000000 1.0
C      1  0.5337030000000  0.4457690000000  0.4560700000000 1.0
C      1  0.4662970000000  0.5542310000000  0.4560700000000 1.0
C      1  0.4457690000000  0.4560700000000  0.5337030000000 1.0
C      1  0.5542310000000  0.4560700000000  0.4662970000000 1.0
C      1  0.4457690000000  0.5439300000000  0.4662970000000 1.0
C      1  0.5337030000000  0.5439300000000  0.5542310000000 1.0
C      1  0.5542310000000  0.5337030000000  0.5439300000000 1.0
C      1  0.5439300000000  0.5542310000000  0.5337030000000 1.0
C      1  0.4662970000000  0.4560700000000  0.5542310000000 1.0
C      1  0.4662970000000  0.5439300000000  0.4457690000000 1.0
C      1  0.5337030000000  0.4560700000000  0.4457690000000 1.0
C      1  0.4457690000000  0.4662970000000  0.5439300000000 1.0
C      1  0.4457690000000  0.5337030000000  0.4560700000000 1.0
C      1  0.5542310000000  0.4662970000000  0.4560700000000 1.0
C      1  0.4560700000000  0.4457690000000  0.5337030000000 1.0
C      1  0.4560700000000  0.5542310000000  0.4662970000000 1.0
C      1  0.5439300000000  0.4457690000000  0.4662970000000 1.0
C      1  0.4146330000000  0.5216090000000  0.4694090000000 1.0
C      1  0.5216090000000  0.4694090000000  0.4146330000000 1.0
C      1  0.4694090000000  0.4146330000000  0.5216090000000 1.0
C      1  0.5853670000000  0.4783910000000  0.4694090000000 1.0
C      1  0.4146330000000  0.4783910000000  0.5305910000000 1.0
C      1  0.5853670000000  0.5216090000000  0.5305910000000 1.0
C      1  0.4783910000000  0.5305910000000  0.4146330000000 1.0
C      1  0.5216090000000  0.5305910000000  0.5853670000000 1.0
C      1  0.4783910000000  0.4694090000000  0.5853670000000 1.0
C      1  0.5305910000000  0.5853670000000  0.5216090000000 1.0
C      1  0.4694090000000  0.5853670000000  0.4783910000000 1.0
C      1  0.5305910000000  0.4146330000000  0.4783910000000 1.0
C      1  0.5216090000000  0.4146330000000  0.4694090000000 1.0
C      1  0.4694090000000  0.5216090000000  0.4146330000000 1.0
C      1  0.4146330000000  0.4694090000000  0.5216090000000 1.0
C      1  0.4783910000000  0.5853670000000  0.4694090000000 1.0
C      1  0.4783910000000  0.4146330000000  0.5305910000000 1.0
C      1  0.5216090000000  0.5853670000000  0.5305910000000 1.0
C      1  0.5305910000000  0.4783910000000  0.4146330000000 1.0
C      1  0.5305910000000  0.5216090000000  0.5853670000000 1.0
C      1  0.4694090000000  0.4783910000000  0.5853670000000 1.0
C      1  0.5853670000000  0.5305910000000  0.5216090000000 1.0
C      1  0.5853670000000  0.4694090000000  0.4783910000000 1.0
C      1  0.4146330000000  0.5305910000000  0.4783910000000 1.0
C      1  0.5228870000000  0.5443890000000  0.5637900000000 1.0
C      1  0.5443890000000  0.5637900000000  0.5228870000000 1.0
C      1  0.5637900000000  0.5228870000000  0.5443890000000 1.0
C      1  0.4771130000000  0.4556110000000  0.5637900000000 1.0
C      1  0.5228870000000  0.4556110000000  0.4362100000000 1.0
C      1  0.4771130000000  0.5443890000000  0.4362100000000 1.0
C      1  0.4556110000000  0.4362100000000  0.5228870000000 1.0
C      1  0.5443890000000  0.4362100000000  0.4771130000000 1.0
C      1  0.4556110000000  0.5637900000000  0.4771130000000 1.0
C      1  0.4362100000000  0.4771130000000  0.5443890000000 1.0
C      1  0.5637900000000  0.4771130000000  0.4556110000000 1.0
C      1  0.4362100000000  0.5228870000000  0.4556110000000 1.0
C      1  0.5443890000000  0.5228870000000  0.5637900000000 1.0
C      1  0.5637900000000  0.5443890000000  0.5228870000000 1.0
C      1  0.5228870000000  0.5637900000000  0.5443890000000 1.0
C      1  0.4556110000000  0.4771130000000  0.5637900000000 1.0
C      1  0.4556110000000  0.5228870000000  0.4362100000000 1.0
C      1  0.5443890000000  0.4771130000000  0.4362100000000 1.0
C      1  0.4362100000000  0.4556110000000  0.5228870000000 1.0
C      1  0.4362100000000  0.5443890000000  0.4771130000000 1.0
C      1  0.5637900000000  0.4556110000000  0.4771130000000 1.0
C      1  0.4771130000000  0.4362100000000  0.5443890000000 1.0
C      1  0.4771130000000  0.5637900000000  0.4556110000000 1.0
C      1  0.5228870000000  0.4362100000000  0.4556110000000 1.0
C      1  0.5756400000000  0.5100560000000  0.4999860000000 1.0
C      1  0.5100560000000  0.4999860000000  0.5756400000000 1.0
C      1  0.4999860000000  0.5756400000000  0.5100560000000 1.0
C      1  0.4243600000000  0.4899440000000  0.4999860000000 1.0
C      1  0.5756400000000  0.4899440000000  0.5000140000000 1.0
C      1  0.4243600000000  0.5100560000000  0.5000140000000 1.0
C      1  0.4899440000000  0.5000140000000  0.5756400000000 1.0
C      1  0.5100560000000  0.5000140000000  0.4243600000000 1.0
C      1  0.4899440000000  0.4999860000000  0.4243600000000 1.0
C      1  0.5000140000000  0.4243600000000  0.5100560000000 1.0
C      1  0.4999860000000  0.4243600000000  0.4899440000000 1.0
C      1  0.5000140000000  0.5756400000000  0.4899440000000 1.0
C      1  0.5100560000000  0.5756400000000  0.4999860000000 1.0
C      1  0.4999860000000  0.5100560000000  0.5756400000000 1.0
C      1  0.5756400000000  0.4999860000000  0.5100560000000 1.0
C      1  0.4899440000000  0.4243600000000  0.4999860000000 1.0
C      1  0.4899440000000  0.5756400000000  0.5000140000000 1.0
C      1  0.5100560000000  0.4243600000000  0.5000140000000 1.0
C      1  0.5000140000000  0.4899440000000  0.5756400000000 1.0
C      1  0.5000140000000  0.5100560000000  0.4243600000000 1.0
C      1  0.4999860000000  0.4899440000000  0.4243600000000 1.0
C      1  0.4243600000000  0.5000140000000  0.5100560000000 1.0
C      1  0.4243600000000  0.4999860000000  0.4899440000000 1.0
C      1  0.5756400000000  0.5000140000000  0.4899440000000 1.0
C      1  0.5623170000000  0.4376830000000  0.4978700000000 1.0
C      1  0.4978700000000  0.5623170000000  0.4376830000000 1.0
C      1  0.4376830000000  0.5623170000000  0.4978700000000 1.0
C      1  0.4978700000000  0.4376830000000  0.5623170000000 1.0
C      1  0.5623170000000  0.4978700000000  0.4376830000000 1.0
C      1  0.4376830000000  0.4978700000000  0.5623170000000 1.0
C      1  0.5623170000000  0.5623170000000  0.5021300000000 1.0
C      1  0.4376830000000  0.4376830000000  0.5021300000000 1.0
C      1  0.5623170000000  0.5021300000000  0.5623170000000 1.0
C      1  0.4376830000000  0.5021300000000  0.4376830000000 1.0
C      1  0.5021300000000  0.4376830000000  0.4376830000000 1.0
C      1  0.5021300000000  0.5623170000000  0.5623170000000 1.0
END
