TITL C-1892075-7045-18 2.63749948798657e-07 1000000 -2102.03887633528 0 0 300 (Th) n - 1
REM
REM in /nfs/bkarasulu/CARBON/AIRSS/Generating-Clusters/GAP-ML-2020/Higher-Symm/Selected-Sizes/TryA-Only_Ih-Symm/Larger-Clusters
REM
REM
REM
REM
REM
REM ./C.cell (2cf5181f0f1d4d5b12b972d32ad12063)
REM
REM compiler GCC version 9.2.1 20190827 (Red Hat 9.2.1-1)
REM options -cpp -mtune=generic -march=x86-64 -g -O0 -fpre-include=/usr/include/finclude/math-vector-fortran.h
REM seed -231865874 -1799196192 248007303 787693726 -514615474 1139339351 1039675982 -1552141871 1280177884 -1055219936 758693963 1336796373 1429607182 638715031 -1460811168 2009550639 1320354600 -872940849 1833457530 240988981 16288126 2145915897 -270083177 364656086 740130802 1900531839 24449893 -1734509216 132617507 221062570 1591461621 1509429157 -1372704606
REM
CELL 1.54180  100.00000  100.00000  100.00000   90.00000   90.00000   90.00000
LATT -1
SFAC C  
C      1  0.5072490000000  0.4299340000000  0.4928280000000 1.0
C      1  0.4299340000000  0.4928280000000  0.5072490000000 1.0
C      1  0.4928280000000  0.5072490000000  0.4299340000000 1.0
C      1  0.4927510000000  0.5700660000000  0.4928280000000 1.0
C      1  0.5072490000000  0.5700660000000  0.5071720000000 1.0
C      1  0.4927510000000  0.4299340000000  0.5071720000000 1.0
C      1  0.5700660000000  0.5071720000000  0.5072490000000 1.0
C      1  0.4299340000000  0.5071720000000  0.4927510000000 1.0
C      1  0.5700660000000  0.4928280000000  0.4927510000000 1.0
C      1  0.5071720000000  0.4927510000000  0.4299340000000 1.0
C      1  0.4928280000000  0.4927510000000  0.5700660000000 1.0
C      1  0.5071720000000  0.5072490000000  0.5700660000000 1.0
C      1  0.5072490000000  0.4299340000000  0.5071720000000 1.0
C      1  0.4299340000000  0.4928280000000  0.4927510000000 1.0
C      1  0.4928280000000  0.5072490000000  0.5700660000000 1.0
C      1  0.4927510000000  0.5700660000000  0.5071720000000 1.0
C      1  0.5072490000000  0.5700660000000  0.4928280000000 1.0
C      1  0.4927510000000  0.4299340000000  0.4928280000000 1.0
C      1  0.5700660000000  0.5071720000000  0.4927510000000 1.0
C      1  0.4299340000000  0.5071720000000  0.5072490000000 1.0
C      1  0.5700660000000  0.4928280000000  0.5072490000000 1.0
C      1  0.5071720000000  0.4927510000000  0.5700660000000 1.0
C      1  0.4928280000000  0.4927510000000  0.4299340000000 1.0
C      1  0.5071720000000  0.5072490000000  0.4299340000000 1.0
C      1  0.5333080000000  0.4852160000000  0.5164570000000 1.0
C      1  0.4852160000000  0.5164570000000  0.5333080000000 1.0
C      1  0.5164570000000  0.5333080000000  0.4852160000000 1.0
C      1  0.4666920000000  0.5147840000000  0.5164570000000 1.0
C      1  0.5333080000000  0.5147840000000  0.4835430000000 1.0
C      1  0.4666920000000  0.4852160000000  0.4835430000000 1.0
C      1  0.5147840000000  0.4835430000000  0.5333080000000 1.0
C      1  0.4852160000000  0.4835430000000  0.4666920000000 1.0
C      1  0.5147840000000  0.5164570000000  0.4666920000000 1.0
C      1  0.4835430000000  0.4666920000000  0.4852160000000 1.0
C      1  0.5164570000000  0.4666920000000  0.5147840000000 1.0
C      1  0.4835430000000  0.5333080000000  0.5147840000000 1.0
C      1  0.5333080000000  0.4852160000000  0.4835430000000 1.0
C      1  0.4852160000000  0.5164570000000  0.4666920000000 1.0
C      1  0.5164570000000  0.5333080000000  0.5147840000000 1.0
C      1  0.4666920000000  0.5147840000000  0.4835430000000 1.0
C      1  0.5333080000000  0.5147840000000  0.5164570000000 1.0
C      1  0.4666920000000  0.4852160000000  0.5164570000000 1.0
C      1  0.5147840000000  0.4835430000000  0.4666920000000 1.0
C      1  0.4852160000000  0.4835430000000  0.5333080000000 1.0
C      1  0.5147840000000  0.5164570000000  0.5333080000000 1.0
C      1  0.4835430000000  0.4666920000000  0.5147840000000 1.0
C      1  0.5164570000000  0.4666920000000  0.4852160000000 1.0
C      1  0.4835430000000  0.5333080000000  0.4852160000000 1.0
C      1  0.5148470000000  0.4473510000000  0.4607560000000 1.0
C      1  0.4473510000000  0.4607560000000  0.5148470000000 1.0
C      1  0.4607560000000  0.5148470000000  0.4473510000000 1.0
C      1  0.4851530000000  0.5526490000000  0.4607560000000 1.0
C      1  0.5148470000000  0.5526490000000  0.5392440000000 1.0
C      1  0.4851530000000  0.4473510000000  0.5392440000000 1.0
C      1  0.5526490000000  0.5392440000000  0.5148470000000 1.0
C      1  0.4473510000000  0.5392440000000  0.4851530000000 1.0
C      1  0.5526490000000  0.4607560000000  0.4851530000000 1.0
C      1  0.5392440000000  0.4851530000000  0.4473510000000 1.0
C      1  0.4607560000000  0.4851530000000  0.5526490000000 1.0
C      1  0.5392440000000  0.5148470000000  0.5526490000000 1.0
C      1  0.5148470000000  0.4473510000000  0.5392440000000 1.0
C      1  0.4473510000000  0.4607560000000  0.4851530000000 1.0
C      1  0.4607560000000  0.5148470000000  0.5526490000000 1.0
C      1  0.4851530000000  0.5526490000000  0.5392440000000 1.0
C      1  0.5148470000000  0.5526490000000  0.4607560000000 1.0
C      1  0.4851530000000  0.4473510000000  0.4607560000000 1.0
C      1  0.5526490000000  0.5392440000000  0.4851530000000 1.0
C      1  0.4473510000000  0.5392440000000  0.5148470000000 1.0
C      1  0.5526490000000  0.4607560000000  0.5148470000000 1.0
C      1  0.5392440000000  0.4851530000000  0.5526490000000 1.0
C      1  0.4607560000000  0.4851530000000  0.4473510000000 1.0
C      1  0.5392440000000  0.5148470000000  0.4473510000000 1.0
C      1  0.5084860000000  0.4721910000000  0.5263060000000 1.0
C      1  0.4721910000000  0.5263060000000  0.5084860000000 1.0
C      1  0.5263060000000  0.5084860000000  0.4721910000000 1.0
C      1  0.4915140000000  0.5278090000000  0.5263060000000 1.0
C      1  0.5084860000000  0.5278090000000  0.4736940000000 1.0
C      1  0.4915140000000  0.4721910000000  0.4736940000000 1.0
C      1  0.5278090000000  0.4736940000000  0.5084860000000 1.0
C      1  0.4721910000000  0.4736940000000  0.4915140000000 1.0
C      1  0.5278090000000  0.5263060000000  0.4915140000000 1.0
C      1  0.4736940000000  0.4915140000000  0.4721910000000 1.0
C      1  0.5263060000000  0.4915140000000  0.5278090000000 1.0
C      1  0.4736940000000  0.5084860000000  0.5278090000000 1.0
C      1  0.5084860000000  0.4721910000000  0.4736940000000 1.0
C      1  0.4721910000000  0.5263060000000  0.4915140000000 1.0
C      1  0.5263060000000  0.5084860000000  0.5278090000000 1.0
C      1  0.4915140000000  0.5278090000000  0.4736940000000 1.0
C      1  0.5084860000000  0.5278090000000  0.5263060000000 1.0
C      1  0.4915140000000  0.4721910000000  0.5263060000000 1.0
C      1  0.5278090000000  0.4736940000000  0.4915140000000 1.0
C      1  0.4721910000000  0.4736940000000  0.5084860000000 1.0
C      1  0.5278090000000  0.5263060000000  0.5084860000000 1.0
C      1  0.4736940000000  0.4915140000000  0.5278090000000 1.0
C      1  0.5263060000000  0.4915140000000  0.4721910000000 1.0
C      1  0.4736940000000  0.5084860000000  0.4721910000000 1.0
C      1  0.4875920000000  0.4526280000000  0.5145150000000 1.0
C      1  0.4526280000000  0.5145150000000  0.4875920000000 1.0
C      1  0.5145150000000  0.4875920000000  0.4526280000000 1.0
C      1  0.5124080000000  0.5473720000000  0.5145150000000 1.0
C      1  0.4875920000000  0.5473720000000  0.4854850000000 1.0
C      1  0.5124080000000  0.4526280000000  0.4854850000000 1.0
C      1  0.5473720000000  0.4854850000000  0.4875920000000 1.0
C      1  0.4526280000000  0.4854850000000  0.5124080000000 1.0
C      1  0.5473720000000  0.5145150000000  0.5124080000000 1.0
C      1  0.4854850000000  0.5124080000000  0.4526280000000 1.0
C      1  0.5145150000000  0.5124080000000  0.5473720000000 1.0
C      1  0.4854850000000  0.4875920000000  0.5473720000000 1.0
C      1  0.4875920000000  0.4526280000000  0.4854850000000 1.0
C      1  0.4526280000000  0.5145150000000  0.5124080000000 1.0
C      1  0.5145150000000  0.4875920000000  0.5473720000000 1.0
C      1  0.5124080000000  0.5473720000000  0.4854850000000 1.0
C      1  0.4875920000000  0.5473720000000  0.5145150000000 1.0
C      1  0.5124080000000  0.4526280000000  0.5145150000000 1.0
C      1  0.5473720000000  0.4854850000000  0.5124080000000 1.0
C      1  0.4526280000000  0.4854850000000  0.4875920000000 1.0
C      1  0.5473720000000  0.5145150000000  0.4875920000000 1.0
C      1  0.4854850000000  0.5124080000000  0.5473720000000 1.0
C      1  0.5145150000000  0.5124080000000  0.4526280000000 1.0
C      1  0.4854850000000  0.4875920000000  0.4526280000000 1.0
C      1  0.4928060000000  0.4574470000000  0.4678980000000 1.0
C      1  0.4574470000000  0.4678980000000  0.4928060000000 1.0
C      1  0.4678980000000  0.4928060000000  0.4574470000000 1.0
C      1  0.5071940000000  0.5425530000000  0.4678980000000 1.0
C      1  0.4928060000000  0.5425530000000  0.5321020000000 1.0
C      1  0.5071940000000  0.4574470000000  0.5321020000000 1.0
C      1  0.5425530000000  0.5321020000000  0.4928060000000 1.0
C      1  0.4574470000000  0.5321020000000  0.5071940000000 1.0
C      1  0.5425530000000  0.4678980000000  0.5071940000000 1.0
C      1  0.5321020000000  0.5071940000000  0.4574470000000 1.0
C      1  0.4678980000000  0.5071940000000  0.5425530000000 1.0
C      1  0.5321020000000  0.4928060000000  0.5425530000000 1.0
C      1  0.4928060000000  0.4574470000000  0.5321020000000 1.0
C      1  0.4574470000000  0.4678980000000  0.5071940000000 1.0
C      1  0.4678980000000  0.4928060000000  0.5425530000000 1.0
C      1  0.5071940000000  0.5425530000000  0.5321020000000 1.0
C      1  0.4928060000000  0.5425530000000  0.4678980000000 1.0
C      1  0.5071940000000  0.4574470000000  0.4678980000000 1.0
C      1  0.5425530000000  0.5321020000000  0.5071940000000 1.0
C      1  0.4574470000000  0.5321020000000  0.4928060000000 1.0
C      1  0.5425530000000  0.4678980000000  0.4928060000000 1.0
C      1  0.5321020000000  0.5071940000000  0.5425530000000 1.0
C      1  0.4678980000000  0.5071940000000  0.4574470000000 1.0
C      1  0.5321020000000  0.4928060000000  0.4574470000000 1.0
C      1  0.5072050000000  0.5301650000000  0.5620890000000 1.0
C      1  0.5301650000000  0.5620890000000  0.5072050000000 1.0
C      1  0.5620890000000  0.5072050000000  0.5301650000000 1.0
C      1  0.4927950000000  0.4698350000000  0.5620890000000 1.0
C      1  0.5072050000000  0.4698350000000  0.4379110000000 1.0
C      1  0.4927950000000  0.5301650000000  0.4379110000000 1.0
C      1  0.4698350000000  0.4379110000000  0.5072050000000 1.0
C      1  0.5301650000000  0.4379110000000  0.4927950000000 1.0
C      1  0.4698350000000  0.5620890000000  0.4927950000000 1.0
C      1  0.4379110000000  0.4927950000000  0.5301650000000 1.0
C      1  0.5620890000000  0.4927950000000  0.4698350000000 1.0
C      1  0.4379110000000  0.5072050000000  0.4698350000000 1.0
C      1  0.5072050000000  0.5301650000000  0.4379110000000 1.0
C      1  0.5301650000000  0.5620890000000  0.4927950000000 1.0
C      1  0.5620890000000  0.5072050000000  0.4698350000000 1.0
C      1  0.4927950000000  0.4698350000000  0.4379110000000 1.0
C      1  0.5072050000000  0.4698350000000  0.5620890000000 1.0
C      1  0.4927950000000  0.5301650000000  0.5620890000000 1.0
C      1  0.4698350000000  0.4379110000000  0.4927950000000 1.0
C      1  0.5301650000000  0.4379110000000  0.5072050000000 1.0
C      1  0.4698350000000  0.5620890000000  0.5072050000000 1.0
C      1  0.4379110000000  0.4927950000000  0.4698350000000 1.0
C      1  0.5620890000000  0.4927950000000  0.5301650000000 1.0
C      1  0.4379110000000  0.5072050000000  0.5301650000000 1.0
C      1  0.4709870000000  0.5491320000000  0.5396590000000 1.0
C      1  0.5491320000000  0.5396590000000  0.4709870000000 1.0
C      1  0.5396590000000  0.4709870000000  0.5491320000000 1.0
C      1  0.5290130000000  0.4508680000000  0.5396590000000 1.0
C      1  0.4709870000000  0.4508680000000  0.4603410000000 1.0
C      1  0.5290130000000  0.5491320000000  0.4603410000000 1.0
C      1  0.4508680000000  0.4603410000000  0.4709870000000 1.0
C      1  0.5491320000000  0.4603410000000  0.5290130000000 1.0
C      1  0.4508680000000  0.5396590000000  0.5290130000000 1.0
C      1  0.4603410000000  0.5290130000000  0.5491320000000 1.0
C      1  0.5396590000000  0.5290130000000  0.4508680000000 1.0
C      1  0.4603410000000  0.4709870000000  0.4508680000000 1.0
C      1  0.4709870000000  0.5491320000000  0.4603410000000 1.0
C      1  0.5491320000000  0.5396590000000  0.5290130000000 1.0
C      1  0.5396590000000  0.4709870000000  0.4508680000000 1.0
C      1  0.5290130000000  0.4508680000000  0.4603410000000 1.0
C      1  0.4709870000000  0.4508680000000  0.5396590000000 1.0
C      1  0.5290130000000  0.5491320000000  0.5396590000000 1.0
C      1  0.4508680000000  0.4603410000000  0.5290130000000 1.0
C      1  0.5491320000000  0.4603410000000  0.4709870000000 1.0
C      1  0.4508680000000  0.5396590000000  0.4709870000000 1.0
C      1  0.4603410000000  0.5290130000000  0.4508680000000 1.0
C      1  0.5396590000000  0.5290130000000  0.5491320000000 1.0
C      1  0.4603410000000  0.4709870000000  0.5491320000000 1.0
C      1  0.4431570000000  0.4843760000000  0.4598870000000 1.0
C      1  0.4843760000000  0.4598870000000  0.4431570000000 1.0
C      1  0.4598870000000  0.4431570000000  0.4843760000000 1.0
C      1  0.5568430000000  0.5156240000000  0.4598870000000 1.0
C      1  0.4431570000000  0.5156240000000  0.5401130000000 1.0
C      1  0.5568430000000  0.4843760000000  0.5401130000000 1.0
C      1  0.5156240000000  0.5401130000000  0.4431570000000 1.0
C      1  0.4843760000000  0.5401130000000  0.5568430000000 1.0
C      1  0.5156240000000  0.4598870000000  0.5568430000000 1.0
C      1  0.5401130000000  0.5568430000000  0.4843760000000 1.0
C      1  0.4598870000000  0.5568430000000  0.5156240000000 1.0
C      1  0.5401130000000  0.4431570000000  0.5156240000000 1.0
C      1  0.4431570000000  0.4843760000000  0.5401130000000 1.0
C      1  0.4843760000000  0.4598870000000  0.5568430000000 1.0
C      1  0.4598870000000  0.4431570000000  0.5156240000000 1.0
C      1  0.5568430000000  0.5156240000000  0.5401130000000 1.0
C      1  0.4431570000000  0.5156240000000  0.4598870000000 1.0
C      1  0.5568430000000  0.4843760000000  0.4598870000000 1.0
C      1  0.5156240000000  0.5401130000000  0.5568430000000 1.0
C      1  0.4843760000000  0.5401130000000  0.4431570000000 1.0
C      1  0.5156240000000  0.4598870000000  0.4431570000000 1.0
C      1  0.5401130000000  0.5568430000000  0.5156240000000 1.0
C      1  0.4598870000000  0.5568430000000  0.4843760000000 1.0
C      1  0.5401130000000  0.4431570000000  0.4843760000000 1.0
C      1  0.5499850000000  0.5291290000000  0.5389420000000 1.0
C      1  0.5291290000000  0.5389420000000  0.5499850000000 1.0
C      1  0.5389420000000  0.5499850000000  0.5291290000000 1.0
C      1  0.4500150000000  0.4708710000000  0.5389420000000 1.0
C      1  0.5499850000000  0.4708710000000  0.4610580000000 1.0
C      1  0.4500150000000  0.5291290000000  0.4610580000000 1.0
C      1  0.4708710000000  0.4610580000000  0.5499850000000 1.0
C      1  0.5291290000000  0.4610580000000  0.4500150000000 1.0
C      1  0.4708710000000  0.5389420000000  0.4500150000000 1.0
C      1  0.4610580000000  0.4500150000000  0.5291290000000 1.0
C      1  0.5389420000000  0.4500150000000  0.4708710000000 1.0
C      1  0.4610580000000  0.5499850000000  0.4708710000000 1.0
C      1  0.5499850000000  0.5291290000000  0.4610580000000 1.0
C      1  0.5291290000000  0.5389420000000  0.4500150000000 1.0
C      1  0.5389420000000  0.5499850000000  0.4708710000000 1.0
C      1  0.4500150000000  0.4708710000000  0.4610580000000 1.0
C      1  0.5499850000000  0.4708710000000  0.5389420000000 1.0
C      1  0.4500150000000  0.5291290000000  0.5389420000000 1.0
C      1  0.4708710000000  0.4610580000000  0.4500150000000 1.0
C      1  0.5291290000000  0.4610580000000  0.5499850000000 1.0
C      1  0.4708710000000  0.5389420000000  0.5499850000000 1.0
C      1  0.4610580000000  0.4500150000000  0.4708710000000 1.0
C      1  0.5389420000000  0.4500150000000  0.5291290000000 1.0
C      1  0.4610580000000  0.5499850000000  0.5291290000000 1.0
C      1  0.5511420000000  0.4926940000000  0.4497470000000 1.0
C      1  0.4926940000000  0.4497470000000  0.5511420000000 1.0
C      1  0.4497470000000  0.5511420000000  0.4926940000000 1.0
C      1  0.4488580000000  0.5073060000000  0.4497470000000 1.0
C      1  0.5511420000000  0.5073060000000  0.5502530000000 1.0
C      1  0.4488580000000  0.4926940000000  0.5502530000000 1.0
C      1  0.5073060000000  0.5502530000000  0.5511420000000 1.0
C      1  0.4926940000000  0.5502530000000  0.4488580000000 1.0
C      1  0.5073060000000  0.4497470000000  0.4488580000000 1.0
C      1  0.5502530000000  0.4488580000000  0.4926940000000 1.0
C      1  0.4497470000000  0.4488580000000  0.5073060000000 1.0
C      1  0.5502530000000  0.5511420000000  0.5073060000000 1.0
C      1  0.5511420000000  0.4926940000000  0.5502530000000 1.0
C      1  0.4926940000000  0.4497470000000  0.4488580000000 1.0
C      1  0.4497470000000  0.5511420000000  0.5073060000000 1.0
C      1  0.4488580000000  0.5073060000000  0.5502530000000 1.0
C      1  0.5511420000000  0.5073060000000  0.4497470000000 1.0
C      1  0.4488580000000  0.4926940000000  0.4497470000000 1.0
C      1  0.5073060000000  0.5502530000000  0.4488580000000 1.0
C      1  0.4926940000000  0.5502530000000  0.5511420000000 1.0
C      1  0.5073060000000  0.4497470000000  0.5511420000000 1.0
C      1  0.5502530000000  0.4488580000000  0.5073060000000 1.0
C      1  0.4497470000000  0.4488580000000  0.4926940000000 1.0
C      1  0.5502530000000  0.5511420000000  0.4926940000000 1.0
C      1  0.4877270000000  0.4830030000000  0.5608730000000 1.0
C      1  0.4830030000000  0.5608730000000  0.4877270000000 1.0
C      1  0.5608730000000  0.4877270000000  0.4830030000000 1.0
C      1  0.5122730000000  0.5169970000000  0.5608730000000 1.0
C      1  0.4877270000000  0.5169970000000  0.4391270000000 1.0
C      1  0.5122730000000  0.4830030000000  0.4391270000000 1.0
C      1  0.5169970000000  0.4391270000000  0.4877270000000 1.0
C      1  0.4830030000000  0.4391270000000  0.5122730000000 1.0
C      1  0.5169970000000  0.5608730000000  0.5122730000000 1.0
C      1  0.4391270000000  0.5122730000000  0.4830030000000 1.0
C      1  0.5608730000000  0.5122730000000  0.5169970000000 1.0
C      1  0.4391270000000  0.4877270000000  0.5169970000000 1.0
C      1  0.4877270000000  0.4830030000000  0.4391270000000 1.0
C      1  0.4830030000000  0.5608730000000  0.5122730000000 1.0
C      1  0.5608730000000  0.4877270000000  0.5169970000000 1.0
C      1  0.5122730000000  0.5169970000000  0.4391270000000 1.0
C      1  0.4877270000000  0.5169970000000  0.5608730000000 1.0
C      1  0.5122730000000  0.4830030000000  0.5608730000000 1.0
C      1  0.5169970000000  0.4391270000000  0.5122730000000 1.0
C      1  0.4830030000000  0.4391270000000  0.4877270000000 1.0
C      1  0.5169970000000  0.5608730000000  0.4877270000000 1.0
C      1  0.4391270000000  0.5122730000000  0.5169970000000 1.0
C      1  0.5608730000000  0.5122730000000  0.4830030000000 1.0
C      1  0.4391270000000  0.4877270000000  0.4830030000000 1.0
C      1  0.5210180000000  0.5000000000000  0.4508170000000 1.0
C      1  0.4789820000000  0.5000000000000  0.5491830000000 1.0
C      1  0.4508170000000  0.4789820000000  0.5000000000000 1.0
C      1  0.4789820000000  0.5000000000000  0.4508170000000 1.0
C      1  0.5000000000000  0.4508170000000  0.4789820000000 1.0
C      1  0.5491830000000  0.5210180000000  0.5000000000000 1.0
C      1  0.4508170000000  0.5210180000000  0.5000000000000 1.0
C      1  0.5491830000000  0.4789820000000  0.5000000000000 1.0
C      1  0.5210180000000  0.5000000000000  0.5491830000000 1.0
C      1  0.5000000000000  0.5491830000000  0.4789820000000 1.0
C      1  0.5000000000000  0.5491830000000  0.5210180000000 1.0
C      1  0.5000000000000  0.4508170000000  0.5210180000000 1.0
END
