TITL C-1892070-372-12 1.78522948280761e-07 1000000 -1690.7311951038 0 0 240 (Td) n - 1
REM
REM in /nfs/bkarasulu/CARBON/AIRSS/Generating-Clusters/GAP-ML-2020/Higher-Symm/Selected-Sizes/TryA-Only_Ih-Symm/Larger-Clusters
REM
REM
REM
REM
REM
REM ./C.cell (2cf5181f0f1d4d5b12b972d32ad12063)
REM
REM compiler GCC version 9.2.1 20190827 (Red Hat 9.2.1-1)
REM options -cpp -mtune=generic -march=x86-64 -g -O0 -fpre-include=/usr/include/finclude/math-vector-fortran.h
REM seed -651751089 972203733 -2020247532 -1051214575 83904813 -478716020 1517359482 1856430828 432597872 -515123414 984483764 -791087243 -1106579871 -1947902969 82335181 117719974 80940145 903665621 -49490524 1369977760 -1790991460 756552627 2122257121 -707959179 -1452698770 -821124436 1314596842 11617311 -1510925508 -209483202 650440409 260791236 2049706639
REM
CELL 1.54180  100.00000  100.00000  100.00000   90.00000   90.00000   90.00000
LATT -1
SFAC C  
C      1  0.4670900000000  0.4970830000000  0.4456090000000 1.0
C      1  0.4970830000000  0.4456090000000  0.4670900000000 1.0
C      1  0.4456090000000  0.4670900000000  0.4970830000000 1.0
C      1  0.4670900000000  0.5029170000000  0.5543910000000 1.0
C      1  0.5329100000000  0.4970830000000  0.5543910000000 1.0
C      1  0.5329100000000  0.5029170000000  0.4456090000000 1.0
C      1  0.4970830000000  0.5543910000000  0.5329100000000 1.0
C      1  0.5029170000000  0.4456090000000  0.5329100000000 1.0
C      1  0.5029170000000  0.5543910000000  0.4670900000000 1.0
C      1  0.4456090000000  0.5329100000000  0.5029170000000 1.0
C      1  0.5543910000000  0.4670900000000  0.5029170000000 1.0
C      1  0.5543910000000  0.5329100000000  0.4970830000000 1.0
C      1  0.4670900000000  0.4456090000000  0.4970830000000 1.0
C      1  0.4970830000000  0.4670900000000  0.4456090000000 1.0
C      1  0.4456090000000  0.4970830000000  0.4670900000000 1.0
C      1  0.4670900000000  0.5543910000000  0.5029170000000 1.0
C      1  0.5329100000000  0.5543910000000  0.4970830000000 1.0
C      1  0.5329100000000  0.4456090000000  0.5029170000000 1.0
C      1  0.4970830000000  0.5329100000000  0.5543910000000 1.0
C      1  0.5029170000000  0.5329100000000  0.4456090000000 1.0
C      1  0.5029170000000  0.4670900000000  0.5543910000000 1.0
C      1  0.4456090000000  0.5029170000000  0.5329100000000 1.0
C      1  0.5543910000000  0.5029170000000  0.4670900000000 1.0
C      1  0.5543910000000  0.4970830000000  0.5329100000000 1.0
C      1  0.5656480000000  0.4978970000000  0.4751650000000 1.0
C      1  0.4978970000000  0.4751650000000  0.5656480000000 1.0
C      1  0.4751650000000  0.5656480000000  0.4978970000000 1.0
C      1  0.5656480000000  0.5021030000000  0.5248350000000 1.0
C      1  0.4343520000000  0.4978970000000  0.5248350000000 1.0
C      1  0.4343520000000  0.5021030000000  0.4751650000000 1.0
C      1  0.4978970000000  0.5248350000000  0.4343520000000 1.0
C      1  0.5021030000000  0.4751650000000  0.4343520000000 1.0
C      1  0.5021030000000  0.5248350000000  0.5656480000000 1.0
C      1  0.4751650000000  0.4343520000000  0.5021030000000 1.0
C      1  0.5248350000000  0.5656480000000  0.5021030000000 1.0
C      1  0.5248350000000  0.4343520000000  0.4978970000000 1.0
C      1  0.5656480000000  0.4751650000000  0.4978970000000 1.0
C      1  0.4978970000000  0.5656480000000  0.4751650000000 1.0
C      1  0.4751650000000  0.4978970000000  0.5656480000000 1.0
C      1  0.5656480000000  0.5248350000000  0.5021030000000 1.0
C      1  0.4343520000000  0.5248350000000  0.4978970000000 1.0
C      1  0.4343520000000  0.4751650000000  0.5021030000000 1.0
C      1  0.4978970000000  0.4343520000000  0.5248350000000 1.0
C      1  0.5021030000000  0.4343520000000  0.4751650000000 1.0
C      1  0.5021030000000  0.5656480000000  0.5248350000000 1.0
C      1  0.4751650000000  0.5021030000000  0.4343520000000 1.0
C      1  0.5248350000000  0.5021030000000  0.5656480000000 1.0
C      1  0.5248350000000  0.4978970000000  0.4343520000000 1.0
C      1  0.4798040000000  0.5659310000000  0.4599870000000 1.0
C      1  0.5659310000000  0.4599870000000  0.4798040000000 1.0
C      1  0.4599870000000  0.4798040000000  0.5659310000000 1.0
C      1  0.4798040000000  0.4340690000000  0.5400130000000 1.0
C      1  0.5201960000000  0.5659310000000  0.5400130000000 1.0
C      1  0.5201960000000  0.4340690000000  0.4599870000000 1.0
C      1  0.5659310000000  0.5400130000000  0.5201960000000 1.0
C      1  0.4340690000000  0.4599870000000  0.5201960000000 1.0
C      1  0.4340690000000  0.5400130000000  0.4798040000000 1.0
C      1  0.4599870000000  0.5201960000000  0.4340690000000 1.0
C      1  0.5400130000000  0.4798040000000  0.4340690000000 1.0
C      1  0.5400130000000  0.5201960000000  0.5659310000000 1.0
C      1  0.4798040000000  0.4599870000000  0.5659310000000 1.0
C      1  0.5659310000000  0.4798040000000  0.4599870000000 1.0
C      1  0.4599870000000  0.5659310000000  0.4798040000000 1.0
C      1  0.4798040000000  0.5400130000000  0.4340690000000 1.0
C      1  0.5201960000000  0.5400130000000  0.5659310000000 1.0
C      1  0.5201960000000  0.4599870000000  0.4340690000000 1.0
C      1  0.5659310000000  0.5201960000000  0.5400130000000 1.0
C      1  0.4340690000000  0.5201960000000  0.4599870000000 1.0
C      1  0.4340690000000  0.4798040000000  0.5400130000000 1.0
C      1  0.4599870000000  0.4340690000000  0.5201960000000 1.0
C      1  0.5400130000000  0.4340690000000  0.4798040000000 1.0
C      1  0.5400130000000  0.5659310000000  0.5201960000000 1.0
C      1  0.5387460000000  0.5289700000000  0.4504560000000 1.0
C      1  0.5289700000000  0.4504560000000  0.5387460000000 1.0
C      1  0.4504560000000  0.5387460000000  0.5289700000000 1.0
C      1  0.5387460000000  0.4710300000000  0.5495440000000 1.0
C      1  0.4612540000000  0.5289700000000  0.5495440000000 1.0
C      1  0.4612540000000  0.4710300000000  0.4504560000000 1.0
C      1  0.5289700000000  0.5495440000000  0.4612540000000 1.0
C      1  0.4710300000000  0.4504560000000  0.4612540000000 1.0
C      1  0.4710300000000  0.5495440000000  0.5387460000000 1.0
C      1  0.4504560000000  0.4612540000000  0.4710300000000 1.0
C      1  0.5495440000000  0.5387460000000  0.4710300000000 1.0
C      1  0.5495440000000  0.4612540000000  0.5289700000000 1.0
C      1  0.5387460000000  0.4504560000000  0.5289700000000 1.0
C      1  0.5289700000000  0.5387460000000  0.4504560000000 1.0
C      1  0.4504560000000  0.5289700000000  0.5387460000000 1.0
C      1  0.5387460000000  0.5495440000000  0.4710300000000 1.0
C      1  0.4612540000000  0.5495440000000  0.5289700000000 1.0
C      1  0.4612540000000  0.4504560000000  0.4710300000000 1.0
C      1  0.5289700000000  0.4612540000000  0.5495440000000 1.0
C      1  0.4710300000000  0.4612540000000  0.4504560000000 1.0
C      1  0.4710300000000  0.5387460000000  0.5495440000000 1.0
C      1  0.4504560000000  0.4710300000000  0.4612540000000 1.0
C      1  0.5495440000000  0.4710300000000  0.5387460000000 1.0
C      1  0.5495440000000  0.5289700000000  0.4612540000000 1.0
C      1  0.5332090000000  0.4567570000000  0.4945030000000 1.0
C      1  0.4567570000000  0.4945030000000  0.5332090000000 1.0
C      1  0.4945030000000  0.5332090000000  0.4567570000000 1.0
C      1  0.5332090000000  0.5432430000000  0.5054970000000 1.0
C      1  0.4667910000000  0.4567570000000  0.5054970000000 1.0
C      1  0.4667910000000  0.5432430000000  0.4945030000000 1.0
C      1  0.4567570000000  0.5054970000000  0.4667910000000 1.0
C      1  0.5432430000000  0.4945030000000  0.4667910000000 1.0
C      1  0.5432430000000  0.5054970000000  0.5332090000000 1.0
C      1  0.4945030000000  0.4667910000000  0.5432430000000 1.0
C      1  0.5054970000000  0.5332090000000  0.5432430000000 1.0
C      1  0.5054970000000  0.4667910000000  0.4567570000000 1.0
C      1  0.5332090000000  0.4945030000000  0.4567570000000 1.0
C      1  0.4567570000000  0.5332090000000  0.4945030000000 1.0
C      1  0.4945030000000  0.4567570000000  0.5332090000000 1.0
C      1  0.5332090000000  0.5054970000000  0.5432430000000 1.0
C      1  0.4667910000000  0.5054970000000  0.4567570000000 1.0
C      1  0.4667910000000  0.4945030000000  0.5432430000000 1.0
C      1  0.4567570000000  0.4667910000000  0.5054970000000 1.0
C      1  0.5432430000000  0.4667910000000  0.4945030000000 1.0
C      1  0.5432430000000  0.5332090000000  0.5054970000000 1.0
C      1  0.4945030000000  0.5432430000000  0.4667910000000 1.0
C      1  0.5054970000000  0.5432430000000  0.5332090000000 1.0
C      1  0.5054970000000  0.4567570000000  0.4667910000000 1.0
C      1  0.5507280000000  0.4599080000000  0.5145010000000 1.0
C      1  0.4599080000000  0.5145010000000  0.5507280000000 1.0
C      1  0.5145010000000  0.5507280000000  0.4599080000000 1.0
C      1  0.5507280000000  0.5400920000000  0.4854990000000 1.0
C      1  0.4492720000000  0.4599080000000  0.4854990000000 1.0
C      1  0.4492720000000  0.5400920000000  0.5145010000000 1.0
C      1  0.4599080000000  0.4854990000000  0.4492720000000 1.0
C      1  0.5400920000000  0.5145010000000  0.4492720000000 1.0
C      1  0.5400920000000  0.4854990000000  0.5507280000000 1.0
C      1  0.5145010000000  0.4492720000000  0.5400920000000 1.0
C      1  0.4854990000000  0.5507280000000  0.5400920000000 1.0
C      1  0.4854990000000  0.4492720000000  0.4599080000000 1.0
C      1  0.5507280000000  0.5145010000000  0.4599080000000 1.0
C      1  0.4599080000000  0.5507280000000  0.5145010000000 1.0
C      1  0.5145010000000  0.4599080000000  0.5507280000000 1.0
C      1  0.5507280000000  0.4854990000000  0.5400920000000 1.0
C      1  0.4492720000000  0.4854990000000  0.4599080000000 1.0
C      1  0.4492720000000  0.5145010000000  0.5400920000000 1.0
C      1  0.4599080000000  0.4492720000000  0.4854990000000 1.0
C      1  0.5400920000000  0.4492720000000  0.5145010000000 1.0
C      1  0.5400920000000  0.5507280000000  0.4854990000000 1.0
C      1  0.5145010000000  0.5400920000000  0.4492720000000 1.0
C      1  0.4854990000000  0.5400920000000  0.5507280000000 1.0
C      1  0.4854990000000  0.4599080000000  0.4492720000000 1.0
C      1  0.4490830000000  0.4775380000000  0.5603880000000 1.0
C      1  0.4775380000000  0.5603880000000  0.4490830000000 1.0
C      1  0.5603880000000  0.4490830000000  0.4775380000000 1.0
C      1  0.4490830000000  0.5224620000000  0.4396120000000 1.0
C      1  0.5509170000000  0.4775380000000  0.4396120000000 1.0
C      1  0.5509170000000  0.5224620000000  0.5603880000000 1.0
C      1  0.4775380000000  0.4396120000000  0.5509170000000 1.0
C      1  0.5224620000000  0.5603880000000  0.5509170000000 1.0
C      1  0.5224620000000  0.4396120000000  0.4490830000000 1.0
C      1  0.5603880000000  0.5509170000000  0.5224620000000 1.0
C      1  0.4396120000000  0.4490830000000  0.5224620000000 1.0
C      1  0.4396120000000  0.5509170000000  0.4775380000000 1.0
C      1  0.4490830000000  0.5603880000000  0.4775380000000 1.0
C      1  0.4775380000000  0.4490830000000  0.5603880000000 1.0
C      1  0.5603880000000  0.4775380000000  0.4490830000000 1.0
C      1  0.4490830000000  0.4396120000000  0.5224620000000 1.0
C      1  0.5509170000000  0.4396120000000  0.4775380000000 1.0
C      1  0.5509170000000  0.5603880000000  0.5224620000000 1.0
C      1  0.4775380000000  0.5509170000000  0.4396120000000 1.0
C      1  0.5224620000000  0.5509170000000  0.5603880000000 1.0
C      1  0.5224620000000  0.4490830000000  0.4396120000000 1.0
C      1  0.5603880000000  0.5224620000000  0.5509170000000 1.0
C      1  0.4396120000000  0.5224620000000  0.4490830000000 1.0
C      1  0.4396120000000  0.4775380000000  0.5509170000000 1.0
C      1  0.4732140000000  0.4836680000000  0.5681610000000 1.0
C      1  0.4836680000000  0.5681610000000  0.4732140000000 1.0
C      1  0.5681610000000  0.4732140000000  0.4836680000000 1.0
C      1  0.4732140000000  0.5163320000000  0.4318390000000 1.0
C      1  0.5267860000000  0.4836680000000  0.4318390000000 1.0
C      1  0.5267860000000  0.5163320000000  0.5681610000000 1.0
C      1  0.4836680000000  0.4318390000000  0.5267860000000 1.0
C      1  0.5163320000000  0.5681610000000  0.5267860000000 1.0
C      1  0.5163320000000  0.4318390000000  0.4732140000000 1.0
C      1  0.5681610000000  0.5267860000000  0.5163320000000 1.0
C      1  0.4318390000000  0.4732140000000  0.5163320000000 1.0
C      1  0.4318390000000  0.5267860000000  0.4836680000000 1.0
C      1  0.4732140000000  0.5681610000000  0.4836680000000 1.0
C      1  0.4836680000000  0.4732140000000  0.5681610000000 1.0
C      1  0.5681610000000  0.4836680000000  0.4732140000000 1.0
C      1  0.4732140000000  0.4318390000000  0.5163320000000 1.0
C      1  0.5267860000000  0.4318390000000  0.4836680000000 1.0
C      1  0.5267860000000  0.5681610000000  0.5163320000000 1.0
C      1  0.4836680000000  0.5267860000000  0.4318390000000 1.0
C      1  0.5163320000000  0.5267860000000  0.5681610000000 1.0
C      1  0.5163320000000  0.4732140000000  0.4318390000000 1.0
C      1  0.5681610000000  0.5163320000000  0.5267860000000 1.0
C      1  0.4318390000000  0.5163320000000  0.4732140000000 1.0
C      1  0.4318390000000  0.4836680000000  0.5267860000000 1.0
C      1  0.5369590000000  0.5263920000000  0.5167170000000 1.0
C      1  0.5263920000000  0.5167170000000  0.5369590000000 1.0
C      1  0.5167170000000  0.5369590000000  0.5263920000000 1.0
C      1  0.5369590000000  0.4736080000000  0.4832830000000 1.0
C      1  0.4630410000000  0.5263920000000  0.4832830000000 1.0
C      1  0.4630410000000  0.4736080000000  0.5167170000000 1.0
C      1  0.5263920000000  0.4832830000000  0.4630410000000 1.0
C      1  0.4736080000000  0.5167170000000  0.4630410000000 1.0
C      1  0.4736080000000  0.4832830000000  0.5369590000000 1.0
C      1  0.5167170000000  0.4630410000000  0.4736080000000 1.0
C      1  0.4832830000000  0.5369590000000  0.4736080000000 1.0
C      1  0.4832830000000  0.4630410000000  0.5263920000000 1.0
C      1  0.5369590000000  0.5167170000000  0.5263920000000 1.0
C      1  0.5263920000000  0.5369590000000  0.5167170000000 1.0
C      1  0.5167170000000  0.5263920000000  0.5369590000000 1.0
C      1  0.5369590000000  0.4832830000000  0.4736080000000 1.0
C      1  0.4630410000000  0.4832830000000  0.5263920000000 1.0
C      1  0.4630410000000  0.5167170000000  0.4736080000000 1.0
C      1  0.5263920000000  0.4630410000000  0.4832830000000 1.0
C      1  0.4736080000000  0.4630410000000  0.5167170000000 1.0
C      1  0.4736080000000  0.5369590000000  0.4832830000000 1.0
C      1  0.5167170000000  0.4736080000000  0.4630410000000 1.0
C      1  0.4832830000000  0.4736080000000  0.5369590000000 1.0
C      1  0.4832830000000  0.5263920000000  0.4630410000000 1.0
C      1  0.4297850000000  0.5064420000000  0.5152150000000 1.0
C      1  0.5064420000000  0.5152150000000  0.4297850000000 1.0
C      1  0.5152150000000  0.4297850000000  0.5064420000000 1.0
C      1  0.4297850000000  0.4935580000000  0.4847850000000 1.0
C      1  0.5702150000000  0.5064420000000  0.4847850000000 1.0
C      1  0.5702150000000  0.4935580000000  0.5152150000000 1.0
C      1  0.5064420000000  0.4847850000000  0.5702150000000 1.0
C      1  0.4935580000000  0.5152150000000  0.5702150000000 1.0
C      1  0.4935580000000  0.4847850000000  0.4297850000000 1.0
C      1  0.5152150000000  0.5702150000000  0.4935580000000 1.0
C      1  0.4847850000000  0.4297850000000  0.4935580000000 1.0
C      1  0.4847850000000  0.5702150000000  0.5064420000000 1.0
C      1  0.4297850000000  0.5152150000000  0.5064420000000 1.0
C      1  0.5064420000000  0.4297850000000  0.5152150000000 1.0
C      1  0.5152150000000  0.5064420000000  0.4297850000000 1.0
C      1  0.4297850000000  0.4847850000000  0.4935580000000 1.0
C      1  0.5702150000000  0.4847850000000  0.5064420000000 1.0
C      1  0.5702150000000  0.5152150000000  0.4935580000000 1.0
C      1  0.5064420000000  0.5702150000000  0.4847850000000 1.0
C      1  0.4935580000000  0.5702150000000  0.5152150000000 1.0
C      1  0.4935580000000  0.4297850000000  0.4847850000000 1.0
C      1  0.5152150000000  0.4935580000000  0.5702150000000 1.0
C      1  0.4847850000000  0.4935580000000  0.4297850000000 1.0
C      1  0.4847850000000  0.5064420000000  0.5702150000000 1.0
END
