TITL C-1887015-2101-67 -3.57615241940182e-07 1000000 -1902.72554929072 0 0 280 (C1) n - 1
REM
REM in /nfs/bkarasulu/CARBON/AIRSS/Generating-Clusters/GAP-ML-2020/Higher-Symm/Selected-Sizes/TryA-Only_Ih-Symm/Larger-Clusters
REM
REM
REM
REM
REM
REM ./C.cell (2cf5181f0f1d4d5b12b972d32ad12063)
REM
REM compiler GCC version 9.2.1 20190827 (Red Hat 9.2.1-1)
REM options -cpp -mtune=generic -march=x86-64 -g -O0 -fpre-include=/usr/include/finclude/math-vector-fortran.h
REM seed -1649848703 -747001583 -1097156044 -1931777411 1924512235 -1503905559 341361278 1617590557 -290418754 -1360242246 1833296516 442079683 -1708831234 1986678564 2125020461 80218575 795064218 960960078 377964666 2096693594 -289307626 -950897873 729061191 538215163 1408314259 2013247238 -749883593 1837857753 -1018717501 -957748389 158428548 -381552304 425480226
REM
CELL 1.54180  100.00000  100.00000  100.00000   90.00000   90.00000   90.00000
LATT -1
SFAC C  
C      1  0.4826180000000  0.4708890000000  0.5105580000000 1.0
C      1  0.5095320000000  0.4859380000000  0.4661550000000 1.0
C      1  0.4694110000000  0.5103400000000  0.4833870000000 1.0
C      1  0.5118470000000  0.5420800000000  0.5033730000000 1.0
C      1  0.5140100000000  0.4638230000000  0.4945460000000 1.0
C      1  0.4881030000000  0.5343030000000  0.4936030000000 1.0
C      1  0.4943580000000  0.5137030000000  0.4567900000000 1.0
C      1  0.4927080000000  0.4865270000000  0.5360280000000 1.0
C      1  0.5112560000000  0.5190690000000  0.5323870000000 1.0
C      1  0.5281140000000  0.4891600000000  0.4820770000000 1.0
C      1  0.5370740000000  0.5095730000000  0.5182570000000 1.0
C      1  0.4585280000000  0.4987260000000  0.5119570000000 1.0
C      1  0.4661030000000  0.4874530000000  0.5086220000000 1.0
C      1  0.4839240000000  0.5097690000000  0.4648350000000 1.0
C      1  0.5098040000000  0.4700720000000  0.4833560000000 1.0
C      1  0.5292090000000  0.5198770000000  0.5132360000000 1.0
C      1  0.4646330000000  0.5156780000000  0.4945760000000 1.0
C      1  0.5357340000000  0.4851980000000  0.4929600000000 1.0
C      1  0.5140260000000  0.4966270000000  0.4586990000000 1.0
C      1  0.4820590000000  0.4904190000000  0.5282500000000 1.0
C      1  0.5150180000000  0.5081690000000  0.5392950000000 1.0
C      1  0.4906680000000  0.5269680000000  0.4825460000000 1.0
C      1  0.5095300000000  0.5354910000000  0.5156550000000 1.0
C      1  0.4929900000000  0.4638710000000  0.5158740000000 1.0
C      1  0.4545140000000  0.4472420000000  0.4728970000000 1.0
C      1  0.4757440000000  0.4539910000000  0.4453500000000 1.0
C      1  0.4459110000000  0.4732960000000  0.4530490000000 1.0
C      1  0.5458530000000  0.5535680000000  0.4715470000000 1.0
C      1  0.5455130000000  0.4455530000000  0.5262980000000 1.0
C      1  0.4548350000000  0.5555550000000  0.5267570000000 1.0
C      1  0.5235780000000  0.5478440000000  0.4454330000000 1.0
C      1  0.5268190000000  0.4548750000000  0.5553930000000 1.0
C      1  0.4744220000000  0.5448150000000  0.5556850000000 1.0
C      1  0.5602980000000  0.5314950000000  0.4483810000000 1.0
C      1  0.5549810000000  0.4735600000000  0.5457090000000 1.0
C      1  0.4460030000000  0.5286010000000  0.5449290000000 1.0
C      1  0.4441130000000  0.4554460000000  0.4758620000000 1.0
C      1  0.4558630000000  0.4718070000000  0.4441570000000 1.0
C      1  0.4709760000000  0.4465060000000  0.4555760000000 1.0
C      1  0.5535850000000  0.5424490000000  0.4732280000000 1.0
C      1  0.4449630000000  0.5463420000000  0.5258240000000 1.0
C      1  0.5546770000000  0.4553860000000  0.5268360000000 1.0
C      1  0.5467880000000  0.5291120000000  0.4472490000000 1.0
C      1  0.4554280000000  0.5256480000000  0.5544180000000 1.0
C      1  0.5458050000000  0.4741830000000  0.5556470000000 1.0
C      1  0.5219880000000  0.5573220000000  0.4550400000000 1.0
C      1  0.4731590000000  0.5545650000000  0.5462580000000 1.0
C      1  0.5271850000000  0.4454960000000  0.5456680000000 1.0
C      1  0.5504160000000  0.4662970000000  0.5177010000000 1.0
C      1  0.5134260000000  0.5529050000000  0.4684330000000 1.0
C      1  0.4665320000000  0.5165570000000  0.5500680000000 1.0
C      1  0.4501080000000  0.5361910000000  0.5165140000000 1.0
C      1  0.4465950000000  0.4679010000000  0.4851190000000 1.0
C      1  0.5499760000000  0.5334970000000  0.4842680000000 1.0
C      1  0.4787800000000  0.4504020000000  0.4694050000000 1.0
C      1  0.4833590000000  0.5521680000000  0.5358020000000 1.0
C      1  0.5173310000000  0.4497410000000  0.5356010000000 1.0
C      1  0.5349070000000  0.4838530000000  0.5524740000000 1.0
C      1  0.5409670000000  0.5221540000000  0.4585870000000 1.0
C      1  0.4662330000000  0.4820160000000  0.4474300000000 1.0
C      1  0.4662400000000  0.5529390000000  0.5172510000000 1.0
C      1  0.5482540000000  0.5158320000000  0.4684900000000 1.0
C      1  0.5169470000000  0.4655880000000  0.5522640000000 1.0
C      1  0.5344960000000  0.4501710000000  0.5176270000000 1.0
C      1  0.4683310000000  0.4507280000000  0.4798740000000 1.0
C      1  0.5346290000000  0.5498760000000  0.4804430000000 1.0
C      1  0.4494220000000  0.4841250000000  0.4628910000000 1.0
C      1  0.5507740000000  0.4833730000000  0.5355020000000 1.0
C      1  0.4505890000000  0.5190650000000  0.5346620000000 1.0
C      1  0.4839580000000  0.5343280000000  0.5515120000000 1.0
C      1  0.5129560000000  0.5378450000000  0.4484360000000 1.0
C      1  0.4844540000000  0.4653790000000  0.4488640000000 1.0
C      1  0.4660640000000  0.4989480000000  0.4748180000000 1.0
C      1  0.4755210000000  0.4693850000000  0.4981240000000 1.0
C      1  0.4982270000000  0.4774910000000  0.4650420000000 1.0
C      1  0.5303060000000  0.5017610000000  0.4756790000000 1.0
C      1  0.5339570000000  0.4992300000000  0.5260360000000 1.0
C      1  0.4646060000000  0.5054090000000  0.5221920000000 1.0
C      1  0.5217850000000  0.5358210000000  0.4962270000000 1.0
C      1  0.5233190000000  0.4667380000000  0.5035430000000 1.0
C      1  0.4783310000000  0.5350750000000  0.5023470000000 1.0
C      1  0.5029130000000  0.5221610000000  0.4629470000000 1.0
C      1  0.5018710000000  0.4769660000000  0.5349720000000 1.0
C      1  0.4996300000000  0.5270230000000  0.5346510000000 1.0
C      1  0.4980700000000  0.4681200000000  0.4754120000000 1.0
C      1  0.4659520000000  0.4793750000000  0.4972170000000 1.0
C      1  0.4749380000000  0.4988120000000  0.4639160000000 1.0
C      1  0.5021520000000  0.5290320000000  0.4747240000000 1.0
C      1  0.4989810000000  0.5368630000000  0.5247800000000 1.0
C      1  0.5020030000000  0.4665130000000  0.5253460000000 1.0
C      1  0.5307840000000  0.5263880000000  0.5006720000000 1.0
C      1  0.4676990000000  0.5256540000000  0.5025630000000 1.0
C      1  0.5334060000000  0.4767660000000  0.5029800000000 1.0
C      1  0.5238630000000  0.5047320000000  0.4639090000000 1.0
C      1  0.4753440000000  0.5026770000000  0.5300950000000 1.0
C      1  0.5237380000000  0.4987560000000  0.5358540000000 1.0
C      1  0.5161910000000  0.4738150000000  0.5400970000000 1.0
C      1  0.5400800000000  0.5120670000000  0.4798730000000 1.0
C      1  0.4745590000000  0.5407940000000  0.5163570000000 1.0
C      1  0.4851260000000  0.5273410000000  0.5387330000000 1.0
C      1  0.4841140000000  0.4743090000000  0.4605870000000 1.0
C      1  0.5159780000000  0.5279090000000  0.4588230000000 1.0
C      1  0.4613850000000  0.4846820000000  0.4721430000000 1.0
C      1  0.4626050000000  0.5192640000000  0.5268970000000 1.0
C      1  0.5382400000000  0.4844510000000  0.5283020000000 1.0
C      1  0.5267160000000  0.4623480000000  0.5177030000000 1.0
C      1  0.5266220000000  0.5368050000000  0.4821680000000 1.0
C      1  0.4729350000000  0.4642960000000  0.4842340000000 1.0
C      1  0.4748840000000  0.5162400000000  0.5379260000000 1.0
C      1  0.5154020000000  0.5368670000000  0.4723590000000 1.0
C      1  0.5382020000000  0.4741270000000  0.5174160000000 1.0
C      1  0.5267230000000  0.4843380000000  0.5401370000000 1.0
C      1  0.4730550000000  0.4841440000000  0.4602560000000 1.0
C      1  0.5268750000000  0.5178390000000  0.4562470000000 1.0
C      1  0.4837670000000  0.4639850000000  0.4735250000000 1.0
C      1  0.5163940000000  0.4621930000000  0.5284540000000 1.0
C      1  0.4845460000000  0.5404370000000  0.5271310000000 1.0
C      1  0.4629120000000  0.5296060000000  0.5164610000000 1.0
C      1  0.5379430000000  0.5247900000000  0.4871970000000 1.0
C      1  0.4605820000000  0.4752250000000  0.4835230000000 1.0
C      1  0.4988040000000  0.5430650000000  0.4462320000000 1.0
C      1  0.4449120000000  0.4958010000000  0.5470190000000 1.0
C      1  0.5461020000000  0.4453950000000  0.4957290000000 1.0
C      1  0.5047810000000  0.4521360000000  0.4451770000000 1.0
C      1  0.5043920000000  0.5472420000000  0.5582590000000 1.0
C      1  0.4961560000000  0.4523850000000  0.5557040000000 1.0
C      1  0.5570500000000  0.5046970000000  0.5469100000000 1.0
C      1  0.5556100000000  0.4943480000000  0.4524460000000 1.0
C      1  0.4458060000000  0.4975920000000  0.4552010000000 1.0
C      1  0.4529410000000  0.5567890000000  0.4964720000000 1.0
C      1  0.4546590000000  0.4435050000000  0.5050970000000 1.0
C      1  0.5464990000000  0.5556810000000  0.5041270000000 1.0
C      1  0.5462390000000  0.4955560000000  0.4441820000000 1.0
C      1  0.4957570000000  0.4437840000000  0.5467260000000 1.0
C      1  0.4447590000000  0.5474910000000  0.4951510000000 1.0
C      1  0.4525830000000  0.5018580000000  0.4448100000000 1.0
C      1  0.5484840000000  0.5043390000000  0.5560220000000 1.0
C      1  0.4536160000000  0.4954180000000  0.5559100000000 1.0
C      1  0.5039250000000  0.5565010000000  0.5498470000000 1.0
C      1  0.4936830000000  0.5514470000000  0.4551030000000 1.0
C      1  0.5035430000000  0.4435620000000  0.4541080000000 1.0
C      1  0.5549980000000  0.4540520000000  0.4959600000000 1.0
C      1  0.4468650000000  0.4532700000000  0.5050340000000 1.0
C      1  0.5560200000000  0.5474930000000  0.5037110000000 1.0
C      1  0.4862120000000  0.5314960000000  0.5657250000000 1.0
C      1  0.5647340000000  0.4861890000000  0.5324190000000 1.0
C      1  0.5299400000000  0.5611750000000  0.4873370000000 1.0
C      1  0.5149560000000  0.4669360000000  0.5666760000000 1.0
C      1  0.5133470000000  0.5335580000000  0.4336250000000 1.0
C      1  0.4867090000000  0.4669040000000  0.4344630000000 1.0
C      1  0.4373360000000  0.5142780000000  0.5322810000000 1.0
C      1  0.4342330000000  0.4832150000000  0.4681100000000 1.0
C      1  0.5621140000000  0.5139920000000  0.4655750000000 1.0
C      1  0.4670090000000  0.4364260000000  0.4853600000000 1.0
C      1  0.4673330000000  0.5674800000000  0.5159710000000 1.0
C      1  0.5319270000000  0.4364170000000  0.5139080000000 1.0
C      1  0.5332150000000  0.4855390000000  0.5669080000000 1.0
C      1  0.4850500000000  0.5666460000000  0.5348240000000 1.0
C      1  0.5645000000000  0.5313950000000  0.4854140000000 1.0
C      1  0.4684240000000  0.5132200000000  0.5642620000000 1.0
C      1  0.5301250000000  0.5152920000000  0.4414860000000 1.0
C      1  0.4674380000000  0.4840590000000  0.4331200000000 1.0
C      1  0.5143710000000  0.4358580000000  0.5325950000000 1.0
C      1  0.4841960000000  0.4362540000000  0.4677600000000 1.0
C      1  0.5226620000000  0.5631990000000  0.4755590000000 1.0
C      1  0.4333620000000  0.4739300000000  0.4790550000000 1.0
C      1  0.5643350000000  0.4683020000000  0.5140960000000 1.0
C      1  0.4364720000000  0.5322300000000  0.5133120000000 1.0
C      1  0.5665950000000  0.5362550000000  0.4713350000000 1.0
C      1  0.4709710000000  0.5680630000000  0.5402890000000 1.0
C      1  0.5390710000000  0.4716060000000  0.5686070000000 1.0
C      1  0.4330700000000  0.4619840000000  0.4699010000000 1.0
C      1  0.4325850000000  0.5377980000000  0.5270480000000 1.0
C      1  0.5677770000000  0.4623170000000  0.5280850000000 1.0
C      1  0.5284440000000  0.4325530000000  0.5381090000000 1.0
C      1  0.5302050000000  0.5659740000000  0.4628880000000 1.0
C      1  0.4704870000000  0.4330570000000  0.4618050000000 1.0
C      1  0.4622740000000  0.5270550000000  0.5675770000000 1.0
C      1  0.4626310000000  0.4696890000000  0.4311480000000 1.0
C      1  0.5358580000000  0.5283390000000  0.4373030000000 1.0
C      1  0.5439880000000  0.5649300000000  0.4634560000000 1.0
C      1  0.5679660000000  0.4722590000000  0.5381560000000 1.0
C      1  0.4721950000000  0.5371570000000  0.5682390000000 1.0
C      1  0.4604180000000  0.4333930000000  0.4722370000000 1.0
C      1  0.5381910000000  0.4327680000000  0.5278200000000 1.0
C      1  0.4612550000000  0.5685920000000  0.5299080000000 1.0
C      1  0.4329220000000  0.5280520000000  0.5373720000000 1.0
C      1  0.5662540000000  0.5271690000000  0.4604840000000 1.0
C      1  0.4330970000000  0.4708680000000  0.4587560000000 1.0
C      1  0.5290700000000  0.4614050000000  0.5685430000000 1.0
C      1  0.4732670000000  0.4603930000000  0.4321550000000 1.0
C      1  0.5268430000000  0.5388360000000  0.4340390000000 1.0
C      1  0.5662870000000  0.4767490000000  0.4928110000000 1.0
C      1  0.4929310000000  0.5612660000000  0.4789010000000 1.0
C      1  0.4772190000000  0.4923040000000  0.5658030000000 1.0
C      1  0.4367940000000  0.5229800000000  0.4926050000000 1.0
C      1  0.4378520000000  0.4769800000000  0.5052600000000 1.0
C      1  0.5660380000000  0.5239050000000  0.5062450000000 1.0
C      1  0.5058160000000  0.4326300000000  0.4764830000000 1.0
C      1  0.5051100000000  0.5647770000000  0.5253370000000 1.0
C      1  0.4933210000000  0.4327230000000  0.5235330000000 1.0
C      1  0.5239870000000  0.5056630000000  0.5647320000000 1.0
C      1  0.5222170000000  0.4944640000000  0.4364760000000 1.0
C      1  0.4763000000000  0.5039770000000  0.4338220000000 1.0
C      1  0.4762960000000  0.5660880000000  0.4951890000000 1.0
C      1  0.5660820000000  0.4931600000000  0.4757030000000 1.0
C      1  0.4942160000000  0.4757670000000  0.5656630000000 1.0
C      1  0.5231920000000  0.4336910000000  0.4926480000000 1.0
C      1  0.4768880000000  0.4323100000000  0.5065250000000 1.0
C      1  0.5219910000000  0.5633360000000  0.5086180000000 1.0
C      1  0.4347840000000  0.5054590000000  0.4767110000000 1.0
C      1  0.5667020000000  0.5071040000000  0.5230860000000 1.0
C      1  0.4369360000000  0.4933540000000  0.5227690000000 1.0
C      1  0.5066880000000  0.5223800000000  0.5653440000000 1.0
C      1  0.4931410000000  0.5211630000000  0.4334500000000 1.0
C      1  0.5064150000000  0.4763250000000  0.4357710000000 1.0
C      1  0.5011410000000  0.4635480000000  0.5633800000000 1.0
C      1  0.5633100000000  0.4996880000000  0.4632270000000 1.0
C      1  0.4639780000000  0.5642150000000  0.5020600000000 1.0
C      1  0.5001570000000  0.5351080000000  0.5646110000000 1.0
C      1  0.5003570000000  0.4634940000000  0.4377250000000 1.0
C      1  0.4991490000000  0.5341510000000  0.4342610000000 1.0
C      1  0.4349690000000  0.4976610000000  0.4649510000000 1.0
C      1  0.4376670000000  0.5001280000000  0.5352210000000 1.0
C      1  0.5645060000000  0.5002700000000  0.5353820000000 1.0
C      1  0.5350320000000  0.4371230000000  0.4998010000000 1.0
C      1  0.5338900000000  0.5619670000000  0.5010410000000 1.0
C      1  0.4649510000000  0.4358390000000  0.4994790000000 1.0
C      1  0.4649720000000  0.4992320000000  0.5636510000000 1.0
C      1  0.4989390000000  0.5564340000000  0.4669180000000 1.0
C      1  0.5633730000000  0.4649690000000  0.5001090000000 1.0
C      1  0.5366860000000  0.4992700000000  0.5629500000000 1.0
C      1  0.4635810000000  0.4976980000000  0.4366000000000 1.0
C      1  0.5342680000000  0.5016040000000  0.4388470000000 1.0
C      1  0.4982670000000  0.4359560000000  0.4648190000000 1.0
C      1  0.5002670000000  0.4358400000000  0.5355800000000 1.0
C      1  0.4988490000000  0.5634130000000  0.5382340000000 1.0
C      1  0.4377330000000  0.5355030000000  0.4992280000000 1.0
C      1  0.5634360000000  0.5359540000000  0.4991130000000 1.0
C      1  0.4422420000000  0.4649140000000  0.4991080000000 1.0
C      1  0.4982120000000  0.5094330000000  0.4431030000000 1.0
C      1  0.4438950000000  0.5004660000000  0.5094360000000 1.0
C      1  0.5104830000000  0.4303360000000  0.4999170000000 1.0
C      1  0.4990030000000  0.4883820000000  0.4398180000000 1.0
C      1  0.4994250000000  0.5093710000000  0.5622050000000 1.0
C      1  0.5014050000000  0.4889300000000  0.5675430000000 1.0
C      1  0.5684210000000  0.5001530000000  0.5098420000000 1.0
C      1  0.5682710000000  0.5006690000000  0.4887130000000 1.0
C      1  0.4345440000000  0.4994980000000  0.4903190000000 1.0
C      1  0.4897180000000  0.5666740000000  0.5022080000000 1.0
C      1  0.4896320000000  0.4296570000000  0.4998560000000 1.0
C      1  0.5084230000000  0.5563920000000  0.5022200000000 1.0
C      1  0.5096380000000  0.4988180000000  0.4445300000000 1.0
C      1  0.5003760000000  0.4302840000000  0.5104160000000 1.0
C      1  0.4365130000000  0.5099550000000  0.5002680000000 1.0
C      1  0.4891500000000  0.4979420000000  0.4382790000000 1.0
C      1  0.5108060000000  0.4981900000000  0.5614580000000 1.0
C      1  0.4904630000000  0.4995920000000  0.5676150000000 1.0
C      1  0.4978130000000  0.5610560000000  0.5129180000000 1.0
C      1  0.4996060000000  0.5629900000000  0.4919790000000 1.0
C      1  0.4995910000000  0.4296790000000  0.4894740000000 1.0
C      1  0.5685490000000  0.4899270000000  0.4994740000000 1.0
C      1  0.4405250000000  0.4893790000000  0.4981540000000 1.0
C      1  0.5682450000000  0.5108360000000  0.4991740000000 1.0
C      1  0.4804860000000  0.5168300000000  0.4305050000000 1.0
C      1  0.5192610000000  0.4813010000000  0.4338100000000 1.0
C      1  0.5199890000000  0.5186810000000  0.5662310000000 1.0
C      1  0.4808580000000  0.4790370000000  0.5635750000000 1.0
C      1  0.4793300000000  0.5624290000000  0.4821570000000 1.0
C      1  0.5192860000000  0.4357270000000  0.4792940000000 1.0
C      1  0.4352090000000  0.4807110000000  0.5184420000000 1.0
C      1  0.5641910000000  0.5204320000000  0.5197220000000 1.0
C      1  0.5640240000000  0.4798410000000  0.4794690000000 1.0
C      1  0.4375520000000  0.5189510000000  0.4791680000000 1.0
C      1  0.4799380000000  0.4348410000000  0.5200390000000 1.0
C      1  0.5182990000000  0.5657630000000  0.5213390000000 1.0
C      1  0.4771870000000  0.4831360000000  0.5166530000000 1.0
C      1  0.4816490000000  0.5164880000000  0.4772770000000 1.0
C      1  0.5167140000000  0.4818340000000  0.4776270000000 1.0
C      1  0.5173980000000  0.5244380000000  0.5201460000000 1.0
END
