TITL C-1887021-2772-83 8.09271807851998e-07 1000000 -1257.78891396777 0 0 180 (Td) n - 1
REM
REM in /nfs/bkarasulu/CARBON/AIRSS/Generating-Clusters/GAP-ML-2020/Higher-Symm/Selected-Sizes/TryA-Only_Ih-Symm/Larger-Clusters
REM
REM
REM
REM
REM
REM ./C.cell (2cf5181f0f1d4d5b12b972d32ad12063)
REM
REM compiler GCC version 9.2.1 20190827 (Red Hat 9.2.1-1)
REM options -cpp -mtune=generic -march=x86-64 -g -O0 -fpre-include=/usr/include/finclude/math-vector-fortran.h
REM seed -800543745 -839677513 -2013149652 1089440473 500979802 -75087816 725435156 926033276 -235799786 -364230999 1357033840 -1793259586 88875764 587764003 216210047 572948427 -1058468976 -651808164 -1129105330 -1910486309 -1713108786 1315287778 -774035388 186354878 -1631189931 -1052371773 1382366255 -1572003201 1239796062 336754689 -835725907 1030496957 -1660156536
REM
CELL 1.54180  100.00000  100.00000  100.00000   90.00000   90.00000   90.00000
LATT -1
SFAC C  
C      1  0.4415450000000  0.4619760000000  0.5483970000000 1.0
C      1  0.4619760000000  0.5483970000000  0.4415450000000 1.0
C      1  0.5483970000000  0.4415450000000  0.4619760000000 1.0
C      1  0.4415450000000  0.5380240000000  0.4516030000000 1.0
C      1  0.5584550000000  0.4619760000000  0.4516030000000 1.0
C      1  0.5584550000000  0.5380240000000  0.5483970000000 1.0
C      1  0.4619760000000  0.4516030000000  0.5584550000000 1.0
C      1  0.5380240000000  0.5483970000000  0.5584550000000 1.0
C      1  0.5380240000000  0.4516030000000  0.4415450000000 1.0
C      1  0.5483970000000  0.5584550000000  0.5380240000000 1.0
C      1  0.4516030000000  0.4415450000000  0.5380240000000 1.0
C      1  0.4516030000000  0.5584550000000  0.4619760000000 1.0
C      1  0.4415450000000  0.5483970000000  0.4619760000000 1.0
C      1  0.4619760000000  0.4415450000000  0.5483970000000 1.0
C      1  0.5483970000000  0.4619760000000  0.4415450000000 1.0
C      1  0.4415450000000  0.4516030000000  0.5380240000000 1.0
C      1  0.5584550000000  0.4516030000000  0.4619760000000 1.0
C      1  0.5584550000000  0.5483970000000  0.5380240000000 1.0
C      1  0.4619760000000  0.5584550000000  0.4516030000000 1.0
C      1  0.5380240000000  0.5584550000000  0.5483970000000 1.0
C      1  0.5380240000000  0.4415450000000  0.4516030000000 1.0
C      1  0.5483970000000  0.5380240000000  0.5584550000000 1.0
C      1  0.4516030000000  0.5380240000000  0.4415450000000 1.0
C      1  0.4516030000000  0.4619760000000  0.5584550000000 1.0
C      1  0.5796200000000  0.5220860000000  0.4867420000000 1.0
C      1  0.5220860000000  0.4867420000000  0.5796200000000 1.0
C      1  0.4867420000000  0.5796200000000  0.5220860000000 1.0
C      1  0.5796200000000  0.4779140000000  0.5132580000000 1.0
C      1  0.4203800000000  0.5220860000000  0.5132580000000 1.0
C      1  0.4203800000000  0.4779140000000  0.4867420000000 1.0
C      1  0.5220860000000  0.5132580000000  0.4203800000000 1.0
C      1  0.4779140000000  0.4867420000000  0.4203800000000 1.0
C      1  0.4779140000000  0.5132580000000  0.5796200000000 1.0
C      1  0.4867420000000  0.4203800000000  0.4779140000000 1.0
C      1  0.5132580000000  0.5796200000000  0.4779140000000 1.0
C      1  0.5132580000000  0.4203800000000  0.5220860000000 1.0
C      1  0.5796200000000  0.4867420000000  0.5220860000000 1.0
C      1  0.5220860000000  0.5796200000000  0.4867420000000 1.0
C      1  0.4867420000000  0.5220860000000  0.5796200000000 1.0
C      1  0.5796200000000  0.5132580000000  0.4779140000000 1.0
C      1  0.4203800000000  0.5132580000000  0.5220860000000 1.0
C      1  0.4203800000000  0.4867420000000  0.4779140000000 1.0
C      1  0.5220860000000  0.4203800000000  0.5132580000000 1.0
C      1  0.4779140000000  0.4203800000000  0.4867420000000 1.0
C      1  0.4779140000000  0.5796200000000  0.5132580000000 1.0
C      1  0.4867420000000  0.4779140000000  0.4203800000000 1.0
C      1  0.5132580000000  0.4779140000000  0.5796200000000 1.0
C      1  0.5132580000000  0.5220860000000  0.4203800000000 1.0
C      1  0.5621640000000  0.5708880000000  0.5107020000000 1.0
C      1  0.5708880000000  0.5107020000000  0.5621640000000 1.0
C      1  0.5107020000000  0.5621640000000  0.5708890000000 1.0
C      1  0.5621640000000  0.4291120000000  0.4892980000000 1.0
C      1  0.4378360000000  0.5708880000000  0.4892980000000 1.0
C      1  0.4378360000000  0.4291120000000  0.5107020000000 1.0
C      1  0.5708880000000  0.4892980000000  0.4378360000000 1.0
C      1  0.4291110000000  0.5107020000000  0.4378360000000 1.0
C      1  0.4291110000000  0.4892980000000  0.5621640000000 1.0
C      1  0.5107020000000  0.4378360000000  0.4291110000000 1.0
C      1  0.4892980000000  0.5621640000000  0.4291110000000 1.0
C      1  0.4892980000000  0.4378360000000  0.5708890000000 1.0
C      1  0.5621640000000  0.5107020000000  0.5708880000000 1.0
C      1  0.5708890000000  0.5621640000000  0.5107020000000 1.0
C      1  0.5107020000000  0.5708880000000  0.5621640000000 1.0
C      1  0.5621640000000  0.4892980000000  0.4291110000000 1.0
C      1  0.4378360000000  0.4892980000000  0.5708890000000 1.0
C      1  0.4378360000000  0.5107020000000  0.4291110000000 1.0
C      1  0.5708890000000  0.4378360000000  0.4892980000000 1.0
C      1  0.4291110000000  0.4378360000000  0.5107020000000 1.0
C      1  0.4291110000000  0.5621640000000  0.4892980000000 1.0
C      1  0.5107020000000  0.4291120000000  0.4378360000000 1.0
C      1  0.4892980000000  0.4291120000000  0.5621640000000 1.0
C      1  0.4892980000000  0.5708890000000  0.4378360000000 1.0
C      1  0.4604380000000  0.4228330000000  0.5054440000000 1.0
C      1  0.4228330000000  0.5054440000000  0.4604380000000 1.0
C      1  0.5054440000000  0.4604380000000  0.4228330000000 1.0
C      1  0.4604380000000  0.5771670000000  0.4945560000000 1.0
C      1  0.5395620000000  0.4228330000000  0.4945560000000 1.0
C      1  0.5395620000000  0.5771670000000  0.5054440000000 1.0
C      1  0.4228330000000  0.4945560000000  0.5395620000000 1.0
C      1  0.5771670000000  0.5054440000000  0.5395620000000 1.0
C      1  0.5771670000000  0.4945560000000  0.4604380000000 1.0
C      1  0.5054440000000  0.5395620000000  0.5771670000000 1.0
C      1  0.4945560000000  0.4604380000000  0.5771670000000 1.0
C      1  0.4945560000000  0.5395620000000  0.4228330000000 1.0
C      1  0.4604380000000  0.5054440000000  0.4228330000000 1.0
C      1  0.4228330000000  0.4604380000000  0.5054440000000 1.0
C      1  0.5054440000000  0.4228330000000  0.4604380000000 1.0
C      1  0.4604380000000  0.4945560000000  0.5771670000000 1.0
C      1  0.5395620000000  0.4945560000000  0.4228330000000 1.0
C      1  0.5395620000000  0.5054440000000  0.5771670000000 1.0
C      1  0.4228330000000  0.5395620000000  0.4945560000000 1.0
C      1  0.5771670000000  0.5395620000000  0.5054440000000 1.0
C      1  0.5771670000000  0.4604380000000  0.4945560000000 1.0
C      1  0.5054440000000  0.5771670000000  0.5395620000000 1.0
C      1  0.4945560000000  0.5771670000000  0.4604380000000 1.0
C      1  0.4945560000000  0.4228330000000  0.5395620000000 1.0
C      1  0.4268400000000  0.5490120000000  0.4851180000000 1.0
C      1  0.5490120000000  0.4851180000000  0.4268400000000 1.0
C      1  0.4851180000000  0.4268400000000  0.5490120000000 1.0
C      1  0.4268400000000  0.4509880000000  0.5148820000000 1.0
C      1  0.5731600000000  0.5490120000000  0.5148820000000 1.0
C      1  0.5731600000000  0.4509880000000  0.4851180000000 1.0
C      1  0.5490120000000  0.5148820000000  0.5731600000000 1.0
C      1  0.4509880000000  0.4851180000000  0.5731600000000 1.0
C      1  0.4509880000000  0.5148820000000  0.4268400000000 1.0
C      1  0.4851180000000  0.5731600000000  0.4509880000000 1.0
C      1  0.5148820000000  0.4268400000000  0.4509880000000 1.0
C      1  0.5148820000000  0.5731600000000  0.5490120000000 1.0
C      1  0.4268400000000  0.4851180000000  0.5490120000000 1.0
C      1  0.5490120000000  0.4268400000000  0.4851180000000 1.0
C      1  0.4851180000000  0.5490120000000  0.4268400000000 1.0
C      1  0.4268400000000  0.5148820000000  0.4509880000000 1.0
C      1  0.5731600000000  0.5148820000000  0.5490120000000 1.0
C      1  0.5731600000000  0.4851180000000  0.4509880000000 1.0
C      1  0.5490120000000  0.5731600000000  0.5148820000000 1.0
C      1  0.4509880000000  0.5731600000000  0.4851180000000 1.0
C      1  0.4509880000000  0.4268400000000  0.5148820000000 1.0
C      1  0.4851180000000  0.4509880000000  0.5731600000000 1.0
C      1  0.5148820000000  0.4509880000000  0.4268400000000 1.0
C      1  0.5148820000000  0.5490120000000  0.5731600000000 1.0
C      1  0.5447530000000  0.5281910000000  0.5694150000000 1.0
C      1  0.5281910000000  0.5694140000000  0.5447530000000 1.0
C      1  0.5694150000000  0.5447530000000  0.5281910000000 1.0
C      1  0.5447530000000  0.4718090000000  0.4305850000000 1.0
C      1  0.4552470000000  0.5281910000000  0.4305850000000 1.0
C      1  0.4552470000000  0.4718090000000  0.5694150000000 1.0
C      1  0.5281910000000  0.4305860000000  0.4552470000000 1.0
C      1  0.4718090000000  0.5694140000000  0.4552470000000 1.0
C      1  0.4718090000000  0.4305860000000  0.5447530000000 1.0
C      1  0.5694150000000  0.4552470000000  0.4718090000000 1.0
C      1  0.4305850000000  0.5447530000000  0.4718090000000 1.0
C      1  0.4305850000000  0.4552470000000  0.5281910000000 1.0
C      1  0.5447530000000  0.5694140000000  0.5281910000000 1.0
C      1  0.5281910000000  0.5447530000000  0.5694150000000 1.0
C      1  0.5694150000000  0.5281910000000  0.5447530000000 1.0
C      1  0.5447530000000  0.4305860000000  0.4718090000000 1.0
C      1  0.4552470000000  0.4305860000000  0.5281910000000 1.0
C      1  0.4552470000000  0.5694140000000  0.4718090000000 1.0
C      1  0.5281910000000  0.4552470000000  0.4305850000000 1.0
C      1  0.4718090000000  0.4552470000000  0.5694150000000 1.0
C      1  0.4718090000000  0.5447530000000  0.4305850000000 1.0
C      1  0.5694150000000  0.4718090000000  0.4552470000000 1.0
C      1  0.4305850000000  0.4718090000000  0.5447530000000 1.0
C      1  0.4305850000000  0.5281910000000  0.4552470000000 1.0
C      1  0.4210390000000  0.5036390000000  0.5312140000000 1.0
C      1  0.5036390000000  0.5312140000000  0.4210390000000 1.0
C      1  0.5312140000000  0.4210390000000  0.5036390000000 1.0
C      1  0.4210390000000  0.4963610000000  0.4687860000000 1.0
C      1  0.5789610000000  0.5036390000000  0.4687860000000 1.0
C      1  0.5789610000000  0.4963610000000  0.5312140000000 1.0
C      1  0.5036390000000  0.4687860000000  0.5789610000000 1.0
C      1  0.4963610000000  0.5312140000000  0.5789610000000 1.0
C      1  0.4963610000000  0.4687860000000  0.4210390000000 1.0
C      1  0.5312140000000  0.5789610000000  0.4963610000000 1.0
C      1  0.4687860000000  0.4210390000000  0.4963610000000 1.0
C      1  0.4687860000000  0.5789610000000  0.5036390000000 1.0
C      1  0.4210390000000  0.5312140000000  0.5036390000000 1.0
C      1  0.5036390000000  0.4210390000000  0.5312140000000 1.0
C      1  0.5312140000000  0.5036390000000  0.4210390000000 1.0
C      1  0.4210390000000  0.4687860000000  0.4963610000000 1.0
C      1  0.5789610000000  0.4687860000000  0.5036390000000 1.0
C      1  0.5789610000000  0.5312140000000  0.4963610000000 1.0
C      1  0.5036390000000  0.5789610000000  0.4687860000000 1.0
C      1  0.4963610000000  0.5789610000000  0.5312140000000 1.0
C      1  0.4963610000000  0.4210390000000  0.4687860000000 1.0
C      1  0.5312140000000  0.4963610000000  0.5789610000000 1.0
C      1  0.4687860000000  0.4963610000000  0.4210390000000 1.0
C      1  0.4687860000000  0.5036390000000  0.5789610000000 1.0
C      1  0.4246080000000  0.5327990000000  0.4672010000000 1.0
C      1  0.5327990000000  0.4672010000000  0.4246080000000 1.0
C      1  0.4672010000000  0.5753920000000  0.4672010000000 1.0
C      1  0.5327990000000  0.4246080000000  0.4672010000000 1.0
C      1  0.4246080000000  0.4672010000000  0.5327990000000 1.0
C      1  0.5753920000000  0.5327990000000  0.5327990000000 1.0
C      1  0.5753920000000  0.4672010000000  0.4672010000000 1.0
C      1  0.4672010000000  0.4672010000000  0.5753920000000 1.0
C      1  0.4672010000000  0.5327990000000  0.4246080000000 1.0
C      1  0.5327990000000  0.5753920000000  0.5327990000000 1.0
C      1  0.4672010000000  0.4246080000000  0.5327990000000 1.0
C      1  0.5327990000000  0.5327990000000  0.5753920000000 1.0
END
