TITL C-1887020-2221-27 -1.23121595380953e-06 1000000 -3816.08513840748 0 0 560 (Th) n - 1
REM
REM in /nfs/bkarasulu/CARBON/AIRSS/Generating-Clusters/GAP-ML-2020/Higher-Symm/Selected-Sizes/TryA-Only_Ih-Symm/Larger-Clusters
REM
REM
REM
REM
REM
REM ./C.cell (2cf5181f0f1d4d5b12b972d32ad12063)
REM
REM compiler GCC version 9.2.1 20190827 (Red Hat 9.2.1-1)
REM options -cpp -mtune=generic -march=x86-64 -g -O0 -fpre-include=/usr/include/finclude/math-vector-fortran.h
REM seed -1130310151 -2061062415 -837296413 2063490798 -1491320928 -215675996 -1927832134 -1919560173 -785006488 -907132345 -164911426 -881804553 544988171 225159737 -2141962845 -1003627255 -1381472854 1705947866 -44056831 1286252506 1297922363 -1188248934 1028177189 -782733582 -1533420006 -1914153766 1379370698 460469757 -836344418 1891479274 -787464126 -271199713 908969310
REM
CELL 1.54180  100.00000  100.00000  100.00000   90.00000   90.00000   90.00000
LATT -1
SFAC C  
C      1  0.5545840000000  0.4386170000000  0.5417920000000 1.0
C      1  0.4385280000000  0.5418580000000  0.5546070000000 1.0
C      1  0.5417690000000  0.5546730000000  0.4385510000000 1.0
C      1  0.4452850000000  0.5614290000000  0.5417920000000 1.0
C      1  0.5545840000000  0.5614290000000  0.4581230000000 1.0
C      1  0.4452850000000  0.4386170000000  0.4581230000000 1.0
C      1  0.5613410000000  0.4581880000000  0.5546070000000 1.0
C      1  0.4385280000000  0.4581880000000  0.4453080000000 1.0
C      1  0.5613410000000  0.5418580000000  0.4453080000000 1.0
C      1  0.4581000000000  0.4453740000000  0.4385510000000 1.0
C      1  0.5417690000000  0.4453740000000  0.5613640000000 1.0
C      1  0.4581000000000  0.5546730000000  0.5613640000000 1.0
C      1  0.5545840000000  0.4386170000000  0.4581230000000 1.0
C      1  0.4385280000000  0.5418580000000  0.4453080000000 1.0
C      1  0.5417690000000  0.5546730000000  0.5613640000000 1.0
C      1  0.4452850000000  0.5614290000000  0.4581230000000 1.0
C      1  0.5545840000000  0.5614290000000  0.5417920000000 1.0
C      1  0.4452850000000  0.4386170000000  0.5417920000000 1.0
C      1  0.5613410000000  0.4581880000000  0.4453080000000 1.0
C      1  0.4385280000000  0.4581880000000  0.5546070000000 1.0
C      1  0.5613410000000  0.5418580000000  0.5546070000000 1.0
C      1  0.4581000000000  0.4453740000000  0.5613640000000 1.0
C      1  0.5417690000000  0.4453740000000  0.4385510000000 1.0
C      1  0.4581000000000  0.5546730000000  0.4385510000000 1.0
C      1  0.4848490000000  0.5505980000000  0.5656650000000 1.0
C      1  0.5505090000000  0.5657310000000  0.4848720000000 1.0
C      1  0.5656430000000  0.4849380000000  0.5505320000000 1.0
C      1  0.5150200000000  0.4494480000000  0.5656660000000 1.0
C      1  0.4848490000000  0.4494480000000  0.4342490000000 1.0
C      1  0.5150200000000  0.5505980000000  0.4342490000000 1.0
C      1  0.4493590000000  0.4343150000000  0.4848720000000 1.0
C      1  0.5505090000000  0.4343150000000  0.5150430000000 1.0
C      1  0.4493590000000  0.5657310000000  0.5150430000000 1.0
C      1  0.4342260000000  0.5151080000000  0.5505320000000 1.0
C      1  0.5656430000000  0.5151080000000  0.4493830000000 1.0
C      1  0.4342260000000  0.4849380000000  0.4493820000000 1.0
C      1  0.4848490000000  0.5505980000000  0.4342490000000 1.0
C      1  0.5505090000000  0.5657310000000  0.5150430000000 1.0
C      1  0.5656430000000  0.4849380000000  0.4493830000000 1.0
C      1  0.5150200000000  0.4494480000000  0.4342490000000 1.0
C      1  0.4848490000000  0.4494480000000  0.5656660000000 1.0
C      1  0.5150200000000  0.5505980000000  0.5656650000000 1.0
C      1  0.4493590000000  0.4343150000000  0.5150430000000 1.0
C      1  0.5505090000000  0.4343150000000  0.4848720000000 1.0
C      1  0.4493590000000  0.5657310000000  0.4848720000000 1.0
C      1  0.4342260000000  0.5151080000000  0.4493830000000 1.0
C      1  0.5656430000000  0.5151080000000  0.5505320000000 1.0
C      1  0.4342260000000  0.4849380000000  0.5505320000000 1.0
C      1  0.4869140000000  0.5794240000000  0.5350560000000 1.0
C      1  0.5793350000000  0.5351220000000  0.4869370000000 1.0
C      1  0.5350330000000  0.4870030000000  0.5793580000000 1.0
C      1  0.5129550000000  0.4206220000000  0.5350570000000 1.0
C      1  0.4869140000000  0.4206220000000  0.4648580000000 1.0
C      1  0.5129550000000  0.5794240000000  0.4648590000000 1.0
C      1  0.4205340000000  0.4649240000000  0.4869370000000 1.0
C      1  0.5793350000000  0.4649240000000  0.5129780000000 1.0
C      1  0.4205340000000  0.5351220000000  0.5129780000000 1.0
C      1  0.4648350000000  0.5130440000000  0.5793580000000 1.0
C      1  0.5350330000000  0.5130440000000  0.4205570000000 1.0
C      1  0.4648350000000  0.4870030000000  0.4205570000000 1.0
C      1  0.4869140000000  0.5794240000000  0.4648590000000 1.0
C      1  0.5793350000000  0.5351220000000  0.5129780000000 1.0
C      1  0.5350330000000  0.4870030000000  0.4205570000000 1.0
C      1  0.5129550000000  0.4206220000000  0.4648580000000 1.0
C      1  0.4869140000000  0.4206220000000  0.5350570000000 1.0
C      1  0.5129550000000  0.5794240000000  0.5350560000000 1.0
C      1  0.4205340000000  0.4649240000000  0.5129780000000 1.0
C      1  0.5793350000000  0.4649240000000  0.4869370000000 1.0
C      1  0.4205340000000  0.5351220000000  0.4869370000000 1.0
C      1  0.4648350000000  0.5130440000000  0.4205570000000 1.0
C      1  0.5350330000000  0.5130440000000  0.5793580000000 1.0
C      1  0.4648350000000  0.4870030000000  0.5793580000000 1.0
C      1  0.4380180000000  0.5298960000000  0.4512930000000 1.0
C      1  0.5298070000000  0.4513590000000  0.4380410000000 1.0
C      1  0.4512700000000  0.4381070000000  0.5298300000000 1.0
C      1  0.5618500000000  0.4701500000000  0.4512930000000 1.0
C      1  0.4380180000000  0.4701500000000  0.5486220000000 1.0
C      1  0.5618500000000  0.5298960000000  0.5486220000000 1.0
C      1  0.4700610000000  0.5486880000000  0.4380420000000 1.0
C      1  0.5298070000000  0.5486880000000  0.5618730000000 1.0
C      1  0.4700610000000  0.4513590000000  0.5618730000000 1.0
C      1  0.5485990000000  0.5619390000000  0.5298300000000 1.0
C      1  0.4512700000000  0.5619390000000  0.4700850000000 1.0
C      1  0.5485990000000  0.4381070000000  0.4700840000000 1.0
C      1  0.4380180000000  0.5298960000000  0.5486220000000 1.0
C      1  0.5298070000000  0.4513590000000  0.5618730000000 1.0
C      1  0.4512700000000  0.4381070000000  0.4700840000000 1.0
C      1  0.5618500000000  0.4701500000000  0.5486220000000 1.0
C      1  0.4380180000000  0.4701500000000  0.4512930000000 1.0
C      1  0.5618500000000  0.5298960000000  0.4512930000000 1.0
C      1  0.4700610000000  0.5486880000000  0.5618730000000 1.0
C      1  0.5298070000000  0.5486880000000  0.4380420000000 1.0
C      1  0.4700610000000  0.4513590000000  0.4380410000000 1.0
C      1  0.5485990000000  0.5619390000000  0.4700850000000 1.0
C      1  0.4512700000000  0.5619390000000  0.5298300000000 1.0
C      1  0.5485990000000  0.4381070000000  0.5298300000000 1.0
C      1  0.4580820000000  0.5070000000000  0.5305330000000 1.0
C      1  0.5069110000000  0.5305990000000  0.4581050000000 1.0
C      1  0.5305100000000  0.4581710000000  0.5069340000000 1.0
C      1  0.5417870000000  0.4930460000000  0.5305330000000 1.0
C      1  0.4580820000000  0.4930460000000  0.4693820000000 1.0
C      1  0.5417870000000  0.5070000000000  0.4693820000000 1.0
C      1  0.4929570000000  0.4694480000000  0.4581050000000 1.0
C      1  0.5069110000000  0.4694480000000  0.5418100000000 1.0
C      1  0.4929570000000  0.5305990000000  0.5418100000000 1.0
C      1  0.4693590000000  0.5418750000000  0.5069340000000 1.0
C      1  0.5305100000000  0.5418750000000  0.4929800000000 1.0
C      1  0.4693590000000  0.4581710000000  0.4929800000000 1.0
C      1  0.4580820000000  0.5070000000000  0.4693820000000 1.0
C      1  0.5069110000000  0.5305990000000  0.5418100000000 1.0
C      1  0.5305100000000  0.4581710000000  0.4929800000000 1.0
C      1  0.5417870000000  0.4930460000000  0.4693820000000 1.0
C      1  0.4580820000000  0.4930460000000  0.5305330000000 1.0
C      1  0.5417870000000  0.5070000000000  0.5305330000000 1.0
C      1  0.4929570000000  0.4694480000000  0.5418100000000 1.0
C      1  0.5069110000000  0.4694480000000  0.4581050000000 1.0
C      1  0.4929570000000  0.5305990000000  0.4581050000000 1.0
C      1  0.4693590000000  0.5418750000000  0.4929800000000 1.0
C      1  0.5305100000000  0.5418750000000  0.5069340000000 1.0
C      1  0.4693590000000  0.4581710000000  0.5069340000000 1.0
C      1  0.4613880000000  0.4761640000000  0.5709810000000 1.0
C      1  0.4760750000000  0.5710470000000  0.4614110000000 1.0
C      1  0.5709580000000  0.4614770000000  0.4760980000000 1.0
C      1  0.5384810000000  0.5238820000000  0.5709810000000 1.0
C      1  0.4613880000000  0.5238820000000  0.4289340000000 1.0
C      1  0.5384810000000  0.4761640000000  0.4289340000000 1.0
C      1  0.5237930000000  0.4289990000000  0.4614110000000 1.0
C      1  0.4760750000000  0.4289990000000  0.5385040000000 1.0
C      1  0.5237930000000  0.5710470000000  0.5385030000000 1.0
C      1  0.4289100000000  0.5385690000000  0.4760980000000 1.0
C      1  0.5709580000000  0.5385690000000  0.5238160000000 1.0
C      1  0.4289100000000  0.4614770000000  0.5238160000000 1.0
C      1  0.4613880000000  0.4761640000000  0.4289330000000 1.0
C      1  0.4760750000000  0.5710470000000  0.5385030000000 1.0
C      1  0.5709580000000  0.4614770000000  0.5238160000000 1.0
C      1  0.5384810000000  0.5238820000000  0.4289340000000 1.0
C      1  0.4613880000000  0.5238820000000  0.5709810000000 1.0
C      1  0.5384810000000  0.4761640000000  0.5709810000000 1.0
C      1  0.5237930000000  0.4289990000000  0.5385040000000 1.0
C      1  0.4760750000000  0.4289990000000  0.4614110000000 1.0
C      1  0.5237930000000  0.5710470000000  0.4614110000000 1.0
C      1  0.4289100000000  0.5385690000000  0.5238160000000 1.0
C      1  0.5709580000000  0.5385690000000  0.4760980000000 1.0
C      1  0.4289100000000  0.4614770000000  0.4760980000000 1.0
C      1  0.5641440000000  0.4755870000000  0.5270950000000 1.0
C      1  0.4754980000000  0.5271610000000  0.5641670000000 1.0
C      1  0.5270720000000  0.5642320000000  0.4755210000000 1.0
C      1  0.4357250000000  0.5244590000000  0.5270950000000 1.0
C      1  0.5641440000000  0.5244590000000  0.4728190000000 1.0
C      1  0.4357250000000  0.4755870000000  0.4728190000000 1.0
C      1  0.5243700000000  0.4728850000000  0.5641670000000 1.0
C      1  0.4754980000000  0.4728850000000  0.4357480000000 1.0
C      1  0.5243700000000  0.5271610000000  0.4357480000000 1.0
C      1  0.4727960000000  0.4358140000000  0.4755210000000 1.0
C      1  0.5270720000000  0.4358140000000  0.5243930000000 1.0
C      1  0.4727960000000  0.5642320000000  0.5243930000000 1.0
C      1  0.5641440000000  0.4755870000000  0.4728190000000 1.0
C      1  0.4754980000000  0.5271610000000  0.4357480000000 1.0
C      1  0.5270720000000  0.5642320000000  0.5243930000000 1.0
C      1  0.4357250000000  0.5244590000000  0.4728190000000 1.0
C      1  0.5641440000000  0.5244590000000  0.5270950000000 1.0
C      1  0.4357250000000  0.4755870000000  0.5270950000000 1.0
C      1  0.5243700000000  0.4728850000000  0.4357480000000 1.0
C      1  0.4754980000000  0.4728850000000  0.5641670000000 1.0
C      1  0.5243700000000  0.5271610000000  0.5641660000000 1.0
C      1  0.4727960000000  0.4358140000000  0.5243940000000 1.0
C      1  0.5270720000000  0.4358140000000  0.4755210000000 1.0
C      1  0.4727960000000  0.5642320000000  0.4755210000000 1.0
C      1  0.4920390000000  0.5079340000000  0.5278070000000 1.0
C      1  0.5078460000000  0.5278720000000  0.4920620000000 1.0
C      1  0.5277840000000  0.4921280000000  0.5078690000000 1.0
C      1  0.5078290000000  0.4921120000000  0.5278070000000 1.0
C      1  0.4920390000000  0.4921120000000  0.4721080000000 1.0
C      1  0.5078290000000  0.5079340000000  0.4721080000000 1.0
C      1  0.4920230000000  0.4721730000000  0.4920620000000 1.0
C      1  0.5078460000000  0.4721730000000  0.5078520000000 1.0
C      1  0.4920230000000  0.5278720000000  0.5078520000000 1.0
C      1  0.4720850000000  0.5079180000000  0.5078690000000 1.0
C      1  0.5277840000000  0.5079180000000  0.4920460000000 1.0
C      1  0.4720850000000  0.4921280000000  0.4920460000000 1.0
C      1  0.4920390000000  0.5079340000000  0.4721080000000 1.0
C      1  0.5078460000000  0.5278720000000  0.5078520000000 1.0
C      1  0.5277840000000  0.4921280000000  0.4920460000000 1.0
C      1  0.5078290000000  0.4921120000000  0.4721080000000 1.0
C      1  0.4920390000000  0.4921120000000  0.5278070000000 1.0
C      1  0.5078290000000  0.5079340000000  0.5278070000000 1.0
C      1  0.4920230000000  0.4721730000000  0.5078520000000 1.0
C      1  0.5078460000000  0.4721730000000  0.4920620000000 1.0
C      1  0.4920230000000  0.5278730000000  0.4920620000000 1.0
C      1  0.4720850000000  0.5079180000000  0.4920460000000 1.0
C      1  0.5277840000000  0.5079180000000  0.5078690000000 1.0
C      1  0.4720850000000  0.4921280000000  0.5078690000000 1.0
C      1  0.5076840000000  0.4298710000000  0.5076840000000 1.0
C      1  0.4297830000000  0.5077490000000  0.5077080000000 1.0
C      1  0.5076610000000  0.5077730000000  0.4298060000000 1.0
C      1  0.4921840000000  0.5701750000000  0.5076840000000 1.0
C      1  0.5076850000000  0.5701750000000  0.4922310000000 1.0
C      1  0.4921840000000  0.4298710000000  0.4922310000000 1.0
C      1  0.5700860000000  0.4922970000000  0.5077080000000 1.0
C      1  0.4297830000000  0.4922970000000  0.4922070000000 1.0
C      1  0.5700860000000  0.5077490000000  0.4922070000000 1.0
C      1  0.4922080000000  0.4922730000000  0.4298060000000 1.0
C      1  0.5076610000000  0.4922730000000  0.5701090000000 1.0
C      1  0.4922080000000  0.5077730000000  0.5701090000000 1.0
C      1  0.5076840000000  0.4298710000000  0.4922310000000 1.0
C      1  0.4297830000000  0.5077490000000  0.4922070000000 1.0
C      1  0.5076610000000  0.5077730000000  0.5701090000000 1.0
C      1  0.4921840000000  0.5701750000000  0.4922310000000 1.0
C      1  0.5076850000000  0.5701750000000  0.5076840000000 1.0
C      1  0.4921840000000  0.4298710000000  0.5076840000000 1.0
C      1  0.5700860000000  0.4922970000000  0.4922070000000 1.0
C      1  0.4297830000000  0.4922970000000  0.5077080000000 1.0
C      1  0.5700860000000  0.5077490000000  0.5077080000000 1.0
C      1  0.4922080000000  0.4922730000000  0.5701090000000 1.0
C      1  0.5076610000000  0.4922730000000  0.4298060000000 1.0
C      1  0.4922080000000  0.5077730000000  0.4298060000000 1.0
C      1  0.5334870000000  0.4931500000000  0.5650070000000 1.0
C      1  0.4930610000000  0.5650730000000  0.5335100000000 1.0
C      1  0.5649840000000  0.5335760000000  0.4930840000000 1.0
C      1  0.4663820000000  0.5068960000000  0.5650070000000 1.0
C      1  0.5334870000000  0.5068960000000  0.4349080000000 1.0
C      1  0.4663820000000  0.4931500000000  0.4349080000000 1.0
C      1  0.5068070000000  0.4349730000000  0.5335100000000 1.0
C      1  0.4930610000000  0.4349730000000  0.4664050000000 1.0
C      1  0.5068070000000  0.5650730000000  0.4664050000000 1.0
C      1  0.4348840000000  0.4664700000000  0.4930840000000 1.0
C      1  0.5649840000000  0.4664700000000  0.5068300000000 1.0
C      1  0.4348840000000  0.5335750000000  0.5068300000000 1.0
C      1  0.5334870000000  0.4931500000000  0.4349080000000 1.0
C      1  0.4930610000000  0.5650730000000  0.4664050000000 1.0
C      1  0.5649840000000  0.5335760000000  0.5068300000000 1.0
C      1  0.4663820000000  0.5068960000000  0.4349080000000 1.0
C      1  0.5334870000000  0.5068960000000  0.5650070000000 1.0
C      1  0.4663820000000  0.4931500000000  0.5650070000000 1.0
C      1  0.5068070000000  0.4349730000000  0.4664050000000 1.0
C      1  0.4930610000000  0.4349730000000  0.5335100000000 1.0
C      1  0.5068070000000  0.5650730000000  0.5335100000000 1.0
C      1  0.4348840000000  0.4664700000000  0.5068300000000 1.0
C      1  0.5649840000000  0.4664700000000  0.4930840000000 1.0
C      1  0.4348840000000  0.5335750000000  0.4930840000000 1.0
C      1  0.5561880000000  0.5074860000000  0.4424200000000 1.0
C      1  0.5073970000000  0.4424860000000  0.5562110000000 1.0
C      1  0.4423970000000  0.5562760000000  0.5074200000000 1.0
C      1  0.4436810000000  0.4925600000000  0.4424200000000 1.0
C      1  0.5561880000000  0.4925600000000  0.5574950000000 1.0
C      1  0.4436810000000  0.5074860000000  0.5574950000000 1.0
C      1  0.4924710000000  0.5575600000000  0.5562110000000 1.0
C      1  0.5073970000000  0.5575600000000  0.4437040000000 1.0
C      1  0.4924710000000  0.4424860000000  0.4437040000000 1.0
C      1  0.5574720000000  0.4437690000000  0.5074200000000 1.0
C      1  0.4423970000000  0.4437690000000  0.4924940000000 1.0
C      1  0.5574720000000  0.5562770000000  0.4924940000000 1.0
C      1  0.5561880000000  0.5074860000000  0.5574950000000 1.0
C      1  0.5073970000000  0.4424860000000  0.4437040000000 1.0
C      1  0.4423970000000  0.5562770000000  0.4924940000000 1.0
C      1  0.4436810000000  0.4925600000000  0.5574950000000 1.0
C      1  0.5561880000000  0.4925600000000  0.4424200000000 1.0
C      1  0.4436810000000  0.5074860000000  0.4424200000000 1.0
C      1  0.4924710000000  0.5575600000000  0.4437040000000 1.0
C      1  0.5073970000000  0.5575600000000  0.5562110000000 1.0
C      1  0.4924710000000  0.4424860000000  0.5562110000000 1.0
C      1  0.5574720000000  0.4437690000000  0.4924940000000 1.0
C      1  0.4423970000000  0.4437690000000  0.5074200000000 1.0
C      1  0.5574720000000  0.5562770000000  0.5074200000000 1.0
C      1  0.5124180000000  0.4389780000000  0.5203480000000 1.0
C      1  0.4388890000000  0.5204140000000  0.5124410000000 1.0
C      1  0.5203250000000  0.5125070000000  0.4389130000000 1.0
C      1  0.4874500000000  0.5610680000000  0.5203480000000 1.0
C      1  0.5124180000000  0.5610680000000  0.4795670000000 1.0
C      1  0.4874500000000  0.4389780000000  0.4795670000000 1.0
C      1  0.5609790000000  0.4796320000000  0.5124410000000 1.0
C      1  0.4388890000000  0.4796320000000  0.4874730000000 1.0
C      1  0.5609800000000  0.5204140000000  0.4874730000000 1.0
C      1  0.4795440000000  0.4875390000000  0.4389120000000 1.0
C      1  0.5203250000000  0.4875390000000  0.5610020000000 1.0
C      1  0.4795440000000  0.5125070000000  0.5610020000000 1.0
C      1  0.5124180000000  0.4389780000000  0.4795670000000 1.0
C      1  0.4388890000000  0.5204140000000  0.4874730000000 1.0
C      1  0.5203250000000  0.5125070000000  0.5610020000000 1.0
C      1  0.4874500000000  0.5610680000000  0.4795670000000 1.0
C      1  0.5124180000000  0.5610680000000  0.5203480000000 1.0
C      1  0.4874500000000  0.4389780000000  0.5203480000000 1.0
C      1  0.5609790000000  0.4796320000000  0.4874730000000 1.0
C      1  0.4388890000000  0.4796320000000  0.5124410000000 1.0
C      1  0.5609800000000  0.5204140000000  0.5124410000000 1.0
C      1  0.4795440000000  0.4875390000000  0.5610020000000 1.0
C      1  0.5203250000000  0.4875390000000  0.4389120000000 1.0
C      1  0.4795440000000  0.5125070000000  0.4389120000000 1.0
C      1  0.5752240000000  0.4850280000000  0.4707370000000 1.0
C      1  0.4849400000000  0.4708030000000  0.5752470000000 1.0
C      1  0.4707140000000  0.5753130000000  0.4849630000000 1.0
C      1  0.4246440000000  0.5150180000000  0.4707370000000 1.0
C      1  0.5752250000000  0.5150180000000  0.5291770000000 1.0
C      1  0.4246440000000  0.4850280000000  0.5291770000000 1.0
C      1  0.5149290000000  0.5292430000000  0.5752470000000 1.0
C      1  0.4849400000000  0.5292430000000  0.4246680000000 1.0
C      1  0.5149290000000  0.4708030000000  0.4246670000000 1.0
C      1  0.5291540000000  0.4247330000000  0.4849630000000 1.0
C      1  0.4707140000000  0.4247330000000  0.5149520000000 1.0
C      1  0.5291540000000  0.5753130000000  0.5149520000000 1.0
C      1  0.5752240000000  0.4850280000000  0.5291770000000 1.0
C      1  0.4849400000000  0.4708030000000  0.4246670000000 1.0
C      1  0.4707140000000  0.5753130000000  0.5149520000000 1.0
C      1  0.4246440000000  0.5150180000000  0.5291770000000 1.0
C      1  0.5752250000000  0.5150180000000  0.4707370000000 1.0
C      1  0.4246440000000  0.4850280000000  0.4707370000000 1.0
C      1  0.5149290000000  0.5292430000000  0.4246680000000 1.0
C      1  0.4849390000000  0.5292430000000  0.5752470000000 1.0
C      1  0.5149290000000  0.4708030000000  0.5752470000000 1.0
C      1  0.5291540000000  0.4247330000000  0.5149520000000 1.0
C      1  0.4707140000000  0.4247330000000  0.4849630000000 1.0
C      1  0.5291540000000  0.5753130000000  0.4849630000000 1.0
C      1  0.5137490000000  0.4622990000000  0.4695210000000 1.0
C      1  0.4622100000000  0.4695860000000  0.5137720000000 1.0
C      1  0.4694980000000  0.5138370000000  0.4622330000000 1.0
C      1  0.4861200000000  0.5377470000000  0.4695210000000 1.0
C      1  0.5137490000000  0.5377470000000  0.5303940000000 1.0
C      1  0.4861200000000  0.4622990000000  0.5303940000000 1.0
C      1  0.5376590000000  0.5304600000000  0.5137720000000 1.0
C      1  0.4622100000000  0.5304600000000  0.4861430000000 1.0
C      1  0.5376580000000  0.4695860000000  0.4861430000000 1.0
C      1  0.5303710000000  0.4862090000000  0.4622330000000 1.0
C      1  0.4694980000000  0.4862090000000  0.5376810000000 1.0
C      1  0.5303710000000  0.5138370000000  0.5376810000000 1.0
C      1  0.5137490000000  0.4622990000000  0.5303940000000 1.0
C      1  0.4622100000000  0.4695860000000  0.4861430000000 1.0
C      1  0.4694980000000  0.5138370000000  0.5376810000000 1.0
C      1  0.4861200000000  0.5377470000000  0.5303940000000 1.0
C      1  0.5137490000000  0.5377470000000  0.4695210000000 1.0
C      1  0.4861200000000  0.4622990000000  0.4695210000000 1.0
C      1  0.5376590000000  0.5304600000000  0.4861430000000 1.0
C      1  0.4622100000000  0.5304600000000  0.5137720000000 1.0
C      1  0.5376580000000  0.4695860000000  0.5137720000000 1.0
C      1  0.5303710000000  0.4862090000000  0.5376810000000 1.0
C      1  0.4694980000000  0.4862090000000  0.4622330000000 1.0
C      1  0.5303710000000  0.5138370000000  0.4622330000000 1.0
C      1  0.5293980000000  0.5363520000000  0.5513390000000 1.0
C      1  0.5362630000000  0.5514050000000  0.5294200000000 1.0
C      1  0.5513160000000  0.5294860000000  0.5362860000000 1.0
C      1  0.4704710000000  0.4636940000000  0.5513390000000 1.0
C      1  0.5293970000000  0.4636940000000  0.4485750000000 1.0
C      1  0.4704710000000  0.5363520000000  0.4485760000000 1.0
C      1  0.4636050000000  0.4486410000000  0.5294210000000 1.0
C      1  0.5362630000000  0.4486410000000  0.4704940000000 1.0
C      1  0.4636050000000  0.5514050000000  0.4704940000000 1.0
C      1  0.4485520000000  0.4705600000000  0.5362860000000 1.0
C      1  0.5513160000000  0.4705600000000  0.4636290000000 1.0
C      1  0.4485520000000  0.5294860000000  0.4636290000000 1.0
C      1  0.5293970000000  0.5363520000000  0.4485760000000 1.0
C      1  0.5362630000000  0.5514050000000  0.4704940000000 1.0
C      1  0.5513160000000  0.5294860000000  0.4636290000000 1.0
C      1  0.4704710000000  0.4636940000000  0.4485750000000 1.0
C      1  0.5293970000000  0.4636940000000  0.5513390000000 1.0
C      1  0.4704710000000  0.5363520000000  0.5513390000000 1.0
C      1  0.4636050000000  0.4486410000000  0.4704940000000 1.0
C      1  0.5362630000000  0.4486410000000  0.5294200000000 1.0
C      1  0.4636050000000  0.5514050000000  0.5294200000000 1.0
C      1  0.4485520000000  0.4705600000000  0.4636290000000 1.0
C      1  0.5513160000000  0.4705600000000  0.5362860000000 1.0
C      1  0.4485520000000  0.5294860000000  0.5362860000000 1.0
C      1  0.5193510000000  0.5077080000000  0.5476390000000 1.0
C      1  0.5076190000000  0.5477050000000  0.5193740000000 1.0
C      1  0.5476170000000  0.5194400000000  0.5076420000000 1.0
C      1  0.4805170000000  0.4923380000000  0.5476390000000 1.0
C      1  0.5193510000000  0.4923380000000  0.4522750000000 1.0
C      1  0.4805170000000  0.5077080000000  0.4522750000000 1.0
C      1  0.4922500000000  0.4523410000000  0.5193740000000 1.0
C      1  0.5076190000000  0.4523410000000  0.4805410000000 1.0
C      1  0.4922500000000  0.5477050000000  0.4805410000000 1.0
C      1  0.4522520000000  0.4806060000000  0.5076420000000 1.0
C      1  0.5476160000000  0.4806060000000  0.4922730000000 1.0
C      1  0.4522520000000  0.5194400000000  0.4922730000000 1.0
C      1  0.5193510000000  0.5077080000000  0.4522750000000 1.0
C      1  0.5076190000000  0.5477050000000  0.4805410000000 1.0
C      1  0.5476170000000  0.5194400000000  0.4922730000000 1.0
C      1  0.4805170000000  0.4923380000000  0.4522750000000 1.0
C      1  0.5193510000000  0.4923380000000  0.5476390000000 1.0
C      1  0.4805170000000  0.5077080000000  0.5476390000000 1.0
C      1  0.4922500000000  0.4523410000000  0.4805410000000 1.0
C      1  0.5076190000000  0.4523410000000  0.5193740000000 1.0
C      1  0.4922500000000  0.5477050000000  0.5193740000000 1.0
C      1  0.4522520000000  0.4806060000000  0.4922730000000 1.0
C      1  0.5476160000000  0.4806060000000  0.5076420000000 1.0
C      1  0.4522520000000  0.5194400000000  0.5076420000000 1.0
C      1  0.4755200000000  0.5074650000000  0.5862650000000 1.0
C      1  0.5073760000000  0.5863310000000  0.4755430000000 1.0
C      1  0.5862420000000  0.4756080000000  0.5073990000000 1.0
C      1  0.5243490000000  0.4925820000000  0.5862650000000 1.0
C      1  0.4755200000000  0.4925820000000  0.4136500000000 1.0
C      1  0.5243490000000  0.5074650000000  0.4136500000000 1.0
C      1  0.4924930000000  0.4137150000000  0.4755430000000 1.0
C      1  0.5073760000000  0.4137150000000  0.5243720000000 1.0
C      1  0.4924930000000  0.5863310000000  0.5243720000000 1.0
C      1  0.4136260000000  0.5244380000000  0.5073990000000 1.0
C      1  0.5862420000000  0.5244380000000  0.4925160000000 1.0
C      1  0.4136270000000  0.4756080000000  0.4925160000000 1.0
C      1  0.4755200000000  0.5074650000000  0.4136500000000 1.0
C      1  0.5073760000000  0.5863310000000  0.5243720000000 1.0
C      1  0.5862420000000  0.4756080000000  0.4925160000000 1.0
C      1  0.5243490000000  0.4925820000000  0.4136500000000 1.0
C      1  0.4755200000000  0.4925820000000  0.5862650000000 1.0
C      1  0.5243490000000  0.5074650000000  0.5862650000000 1.0
C      1  0.4924930000000  0.4137150000000  0.5243720000000 1.0
C      1  0.5073760000000  0.4137150000000  0.4755430000000 1.0
C      1  0.4924930000000  0.5863310000000  0.4755430000000 1.0
C      1  0.4136260000000  0.5244380000000  0.4925160000000 1.0
C      1  0.5862420000000  0.5244380000000  0.5073990000000 1.0
C      1  0.4136270000000  0.4756080000000  0.5073990000000 1.0
C      1  0.5073260000000  0.4855920000000  0.4579140000000 1.0
C      1  0.4855030000000  0.4579800000000  0.5073490000000 1.0
C      1  0.4578910000000  0.5074150000000  0.4855260000000 1.0
C      1  0.4925430000000  0.5144550000000  0.4579140000000 1.0
C      1  0.5073260000000  0.5144550000000  0.5420000000000 1.0
C      1  0.4925430000000  0.4855920000000  0.5420010000000 1.0
C      1  0.5143660000000  0.5420660000000  0.5073490000000 1.0
C      1  0.4855030000000  0.5420660000000  0.4925660000000 1.0
C      1  0.5143660000000  0.4579800000000  0.4925660000000 1.0
C      1  0.5419780000000  0.4926310000000  0.4855260000000 1.0
C      1  0.4578910000000  0.4926310000000  0.5143890000000 1.0
C      1  0.5419780000000  0.5074150000000  0.5143890000000 1.0
C      1  0.5073260000000  0.4855920000000  0.5420010000000 1.0
C      1  0.4855030000000  0.4579800000000  0.4925660000000 1.0
C      1  0.4578910000000  0.5074150000000  0.5143890000000 1.0
C      1  0.4925430000000  0.5144550000000  0.5420000000000 1.0
C      1  0.5073260000000  0.5144550000000  0.4579140000000 1.0
C      1  0.4925430000000  0.4855920000000  0.4579140000000 1.0
C      1  0.5143660000000  0.5420660000000  0.4925660000000 1.0
C      1  0.4855030000000  0.5420660000000  0.5073490000000 1.0
C      1  0.5143660000000  0.4579800000000  0.5073490000000 1.0
C      1  0.5419780000000  0.4926310000000  0.5143890000000 1.0
C      1  0.4578910000000  0.4926310000000  0.4855260000000 1.0
C      1  0.5419780000000  0.5074150000000  0.4855260000000 1.0
C      1  0.4788940000000  0.5141810000000  0.5258130000000 1.0
C      1  0.5140930000000  0.5258790000000  0.4789170000000 1.0
C      1  0.5257900000000  0.4789830000000  0.5141160000000 1.0
C      1  0.5209740000000  0.4858650000000  0.5258130000000 1.0
C      1  0.4788940000000  0.4858650000000  0.4741010000000 1.0
C      1  0.5209750000000  0.5141810000000  0.4741010000000 1.0
C      1  0.4857760000000  0.4741670000000  0.4789170000000 1.0
C      1  0.5140930000000  0.4741670000000  0.5209970000000 1.0
C      1  0.4857760000000  0.5258790000000  0.5209970000000 1.0
C      1  0.4740780000000  0.5210630000000  0.5141160000000 1.0
C      1  0.5257910000000  0.5210630000000  0.4857990000000 1.0
C      1  0.4740780000000  0.4789830000000  0.4857990000000 1.0
C      1  0.4788940000000  0.5141810000000  0.4741010000000 1.0
C      1  0.5140930000000  0.5258790000000  0.5209970000000 1.0
C      1  0.5257900000000  0.4789830000000  0.4857990000000 1.0
C      1  0.5209740000000  0.4858650000000  0.4741010000000 1.0
C      1  0.4788940000000  0.4858650000000  0.5258130000000 1.0
C      1  0.5209750000000  0.5141810000000  0.5258130000000 1.0
C      1  0.4857760000000  0.4741670000000  0.5209970000000 1.0
C      1  0.5140930000000  0.4741670000000  0.4789170000000 1.0
C      1  0.4857760000000  0.5258790000000  0.4789170000000 1.0
C      1  0.4740780000000  0.5210630000000  0.4857990000000 1.0
C      1  0.5257910000000  0.5210630000000  0.5141160000000 1.0
C      1  0.4740780000000  0.4789830000000  0.5141160000000 1.0
C      1  0.5156660000000  0.5587760000000  0.5439380000000 1.0
C      1  0.5586880000000  0.5440040000000  0.5156890000000 1.0
C      1  0.5439150000000  0.5157540000000  0.5587110000000 1.0
C      1  0.4842030000000  0.4412700000000  0.5439380000000 1.0
C      1  0.5156660000000  0.4412700000000  0.4559760000000 1.0
C      1  0.4842030000000  0.5587760000000  0.4559770000000 1.0
C      1  0.4411810000000  0.4560420000000  0.5156890000000 1.0
C      1  0.5586880000000  0.4560420000000  0.4842260000000 1.0
C      1  0.4411810000000  0.5440040000000  0.4842260000000 1.0
C      1  0.4559530000000  0.4842920000000  0.5587110000000 1.0
C      1  0.5439150000000  0.4842920000000  0.4412040000000 1.0
C      1  0.4559530000000  0.5157540000000  0.4412040000000 1.0
C      1  0.5156660000000  0.5587760000000  0.4559770000000 1.0
C      1  0.5586880000000  0.5440040000000  0.4842260000000 1.0
C      1  0.5439150000000  0.5157540000000  0.4412040000000 1.0
C      1  0.4842030000000  0.4412700000000  0.4559760000000 1.0
C      1  0.5156660000000  0.4412700000000  0.5439380000000 1.0
C      1  0.4842030000000  0.5587760000000  0.5439380000000 1.0
C      1  0.4411810000000  0.4560420000000  0.4842260000000 1.0
C      1  0.5586880000000  0.4560420000000  0.5156890000000 1.0
C      1  0.4411810000000  0.5440040000000  0.5156890000000 1.0
C      1  0.4559530000000  0.4842920000000  0.4412040000000 1.0
C      1  0.5439150000000  0.4842920000000  0.5587110000000 1.0
C      1  0.4559530000000  0.5157540000000  0.5587110000000 1.0
C      1  0.4611470000000  0.4755810000000  0.4544140000000 1.0
C      1  0.4754920000000  0.4544790000000  0.4611700000000 1.0
C      1  0.4543910000000  0.4612360000000  0.4755150000000 1.0
C      1  0.5387220000000  0.5244650000000  0.4544140000000 1.0
C      1  0.4611470000000  0.5244650000000  0.5455010000000 1.0
C      1  0.5387220000000  0.4755810000000  0.5455010000000 1.0
C      1  0.5243770000000  0.5455670000000  0.4611700000000 1.0
C      1  0.4754920000000  0.5455670000000  0.5387450000000 1.0
C      1  0.5243770000000  0.4544790000000  0.5387450000000 1.0
C      1  0.5454780000000  0.5388100000000  0.4755150000000 1.0
C      1  0.4543910000000  0.5388100000000  0.5243990000000 1.0
C      1  0.5454780000000  0.4612360000000  0.5244000000000 1.0
C      1  0.4611470000000  0.4755810000000  0.5455010000000 1.0
C      1  0.4754920000000  0.4544790000000  0.5387450000000 1.0
C      1  0.4543910000000  0.4612360000000  0.5244000000000 1.0
C      1  0.5387220000000  0.5244650000000  0.5455010000000 1.0
C      1  0.4611470000000  0.5244650000000  0.4544140000000 1.0
C      1  0.5387220000000  0.4755810000000  0.4544140000000 1.0
C      1  0.5243770000000  0.5455670000000  0.5387450000000 1.0
C      1  0.4754920000000  0.5455670000000  0.4611700000000 1.0
C      1  0.5243770000000  0.4544790000000  0.4611700000000 1.0
C      1  0.5454780000000  0.5388100000000  0.5243990000000 1.0
C      1  0.4543910000000  0.5388100000000  0.4755150000000 1.0
C      1  0.5454780000000  0.4612360000000  0.4755150000000 1.0
C      1  0.5816060000000  0.4868690000000  0.4842130000000 1.0
C      1  0.4867810000000  0.4842790000000  0.5816290000000 1.0
C      1  0.4841900000000  0.5816940000000  0.4868040000000 1.0
C      1  0.4182630000000  0.5131770000000  0.4842130000000 1.0
C      1  0.5816060000000  0.5131770000000  0.5157010000000 1.0
C      1  0.4182630000000  0.4868690000000  0.5157010000000 1.0
C      1  0.5130880000000  0.5157670000000  0.5816280000000 1.0
C      1  0.4867810000000  0.5157670000000  0.4182860000000 1.0
C      1  0.5130880000000  0.4842790000000  0.4182860000000 1.0
C      1  0.5156780000000  0.4183520000000  0.4868040000000 1.0
C      1  0.4841900000000  0.4183520000000  0.5131110000000 1.0
C      1  0.5156780000000  0.5816940000000  0.5131110000000 1.0
C      1  0.5816060000000  0.4868690000000  0.5157010000000 1.0
C      1  0.4867810000000  0.4842790000000  0.4182860000000 1.0
C      1  0.4841900000000  0.5816940000000  0.5131110000000 1.0
C      1  0.4182630000000  0.5131770000000  0.5157010000000 1.0
C      1  0.5816060000000  0.5131770000000  0.4842130000000 1.0
C      1  0.4182630000000  0.4868690000000  0.4842130000000 1.0
C      1  0.5130880000000  0.5157670000000  0.4182860000000 1.0
C      1  0.4867810000000  0.5157670000000  0.5816280000000 1.0
C      1  0.5130880000000  0.4842790000000  0.5816290000000 1.0
C      1  0.5156780000000  0.4183520000000  0.5131110000000 1.0
C      1  0.4841900000000  0.4183520000000  0.4868040000000 1.0
C      1  0.5156780000000  0.5816940000000  0.4868040000000 1.0
C      1  0.4265060000000  0.5073380000000  0.5409760000000 1.0
C      1  0.5072500000000  0.5410420000000  0.4265290000000 1.0
C      1  0.5409530000000  0.4265950000000  0.5072730000000 1.0
C      1  0.5733630000000  0.4927080000000  0.5409760000000 1.0
C      1  0.4265060000000  0.4927080000000  0.4589390000000 1.0
C      1  0.5733630000000  0.5073380000000  0.4589390000000 1.0
C      1  0.4926190000000  0.4590050000000  0.4265290000000 1.0
C      1  0.5072500000000  0.4590050000000  0.5733860000000 1.0
C      1  0.4926190000000  0.5410420000000  0.5733850000000 1.0
C      1  0.4589160000000  0.5734510000000  0.5072730000000 1.0
C      1  0.5409530000000  0.5734510000000  0.4926420000000 1.0
C      1  0.4589160000000  0.4265950000000  0.4926420000000 1.0
C      1  0.4265060000000  0.5073380000000  0.4589390000000 1.0
C      1  0.5072500000000  0.5410420000000  0.5733850000000 1.0
C      1  0.5409530000000  0.4265950000000  0.4926420000000 1.0
C      1  0.5733630000000  0.4927080000000  0.4589390000000 1.0
C      1  0.4265060000000  0.4927080000000  0.5409760000000 1.0
C      1  0.5733630000000  0.5073380000000  0.5409760000000 1.0
C      1  0.4926190000000  0.4590050000000  0.5733860000000 1.0
C      1  0.5072500000000  0.4590050000000  0.4265290000000 1.0
C      1  0.4926190000000  0.5410420000000  0.4265290000000 1.0
C      1  0.4589160000000  0.5734510000000  0.4926420000000 1.0
C      1  0.5409530000000  0.5734510000000  0.5072730000000 1.0
C      1  0.4589160000000  0.4265950000000  0.5072730000000 1.0
C      1  0.4464450000000  0.5535130000000  0.5534470000000 1.0
C      1  0.5534240000000  0.5535130000000  0.4464680000000 1.0
C      1  0.5534240000000  0.4465340000000  0.5534470000000 1.0
C      1  0.4464450000000  0.4465340000000  0.4464680000000 1.0
C      1  0.4464450000000  0.5535130000000  0.4464680000000 1.0
C      1  0.5534240000000  0.4465330000000  0.4464680000000 1.0
C      1  0.4464450000000  0.4465340000000  0.5534470000000 1.0
C      1  0.5534240000000  0.5535130000000  0.5534470000000 1.0
END
