TITL C-1887020-2221-48 2.7103681100539e-06 1000000 -2497.92048914261 0 0 360 (Th) n - 1
REM
REM in /nfs/bkarasulu/CARBON/AIRSS/Generating-Clusters/GAP-ML-2020/Higher-Symm/Selected-Sizes/TryA-Only_Ih-Symm/Larger-Clusters
REM
REM
REM
REM
REM
REM ./C.cell (2cf5181f0f1d4d5b12b972d32ad12063)
REM
REM compiler GCC version 9.2.1 20190827 (Red Hat 9.2.1-1)
REM options -cpp -mtune=generic -march=x86-64 -g -O0 -fpre-include=/usr/include/finclude/math-vector-fortran.h
REM seed -1667719039 90842482 208122211 701894139 -929661383 727795481 1103574311 2054518536 -1343642579 654297573 279876041 959135193 -1436174552 1745820946 -182900468 583271582 2061567681 1680814360 939793025 -862456688 -451948644 -1511936593 -886384456 -809215783 1174318798 -141775242 -149800483 -2025134079 -1646754825 -1842749810 85721509 1474770545 415653404
REM
CELL 1.54180  100.00000  100.00000  100.00000   90.00000   90.00000   90.00000
LATT -1
SFAC C  
C      1  0.4717110000000  0.4932270000000  0.4494180000000 1.0
C      1  0.4932270000000  0.4494180000000  0.4717110000000 1.0
C      1  0.4494180000000  0.4717110000000  0.4932270000000 1.0
C      1  0.4717110000000  0.5067730000000  0.5505820000000 1.0
C      1  0.5282890000000  0.4932270000000  0.5505820000000 1.0
C      1  0.5282890000000  0.5067730000000  0.4494180000000 1.0
C      1  0.4932270000000  0.5505820000000  0.5282890000000 1.0
C      1  0.5067730000000  0.4494180000000  0.5282890000000 1.0
C      1  0.5067730000000  0.5505820000000  0.4717110000000 1.0
C      1  0.4494180000000  0.5282890000000  0.5067730000000 1.0
C      1  0.5505820000000  0.4717110000000  0.5067730000000 1.0
C      1  0.5505820000000  0.5282890000000  0.4932270000000 1.0
C      1  0.5282890000000  0.4932270000000  0.4494180000000 1.0
C      1  0.5067730000000  0.4494180000000  0.4717110000000 1.0
C      1  0.5505820000000  0.4717110000000  0.4932270000000 1.0
C      1  0.5282890000000  0.5067730000000  0.5505820000000 1.0
C      1  0.4717110000000  0.4932270000000  0.5505820000000 1.0
C      1  0.4717110000000  0.5067730000000  0.4494180000000 1.0
C      1  0.5067730000000  0.5505820000000  0.5282890000000 1.0
C      1  0.4932270000000  0.4494180000000  0.5282890000000 1.0
C      1  0.4932270000000  0.5505820000000  0.4717110000000 1.0
C      1  0.5505820000000  0.5282890000000  0.5067730000000 1.0
C      1  0.4494180000000  0.4717110000000  0.5067730000000 1.0
C      1  0.4494180000000  0.5282890000000  0.4932270000000 1.0
C      1  0.5061480000000  0.5783270000000  0.4712770000000 1.0
C      1  0.5783270000000  0.4712770000000  0.5061480000000 1.0
C      1  0.4712770000000  0.5061480000000  0.5783270000000 1.0
C      1  0.5061480000000  0.4216730000000  0.5287230000000 1.0
C      1  0.4938520000000  0.5783270000000  0.5287230000000 1.0
C      1  0.4938520000000  0.4216730000000  0.4712770000000 1.0
C      1  0.5783270000000  0.5287230000000  0.4938520000000 1.0
C      1  0.4216730000000  0.4712770000000  0.4938520000000 1.0
C      1  0.4216730000000  0.5287230000000  0.5061480000000 1.0
C      1  0.4712770000000  0.4938520000000  0.4216730000000 1.0
C      1  0.5287230000000  0.5061480000000  0.4216730000000 1.0
C      1  0.5287230000000  0.4938520000000  0.5783270000000 1.0
C      1  0.4938520000000  0.5783270000000  0.4712770000000 1.0
C      1  0.4216730000000  0.4712770000000  0.5061480000000 1.0
C      1  0.5287230000000  0.5061480000000  0.5783270000000 1.0
C      1  0.4938520000000  0.4216730000000  0.5287230000000 1.0
C      1  0.5061480000000  0.5783270000000  0.5287230000000 1.0
C      1  0.5061480000000  0.4216730000000  0.4712770000000 1.0
C      1  0.4216730000000  0.5287230000000  0.4938520000000 1.0
C      1  0.5783270000000  0.4712770000000  0.4938520000000 1.0
C      1  0.5783270000000  0.5287230000000  0.5061480000000 1.0
C      1  0.5287230000000  0.4938520000000  0.4216730000000 1.0
C      1  0.4712770000000  0.5061480000000  0.4216730000000 1.0
C      1  0.4712770000000  0.4938520000000  0.5783270000000 1.0
C      1  0.4546050000000  0.5513980000000  0.5314460000000 1.0
C      1  0.5513980000000  0.5314460000000  0.4546050000000 1.0
C      1  0.5314460000000  0.4546050000000  0.5513980000000 1.0
C      1  0.4546050000000  0.4486020000000  0.4685540000000 1.0
C      1  0.5453950000000  0.5513980000000  0.4685540000000 1.0
C      1  0.5453950000000  0.4486020000000  0.5314460000000 1.0
C      1  0.5513980000000  0.4685540000000  0.5453950000000 1.0
C      1  0.4486020000000  0.5314460000000  0.5453950000000 1.0
C      1  0.4486020000000  0.4685540000000  0.4546050000000 1.0
C      1  0.5314460000000  0.5453950000000  0.4486020000000 1.0
C      1  0.4685540000000  0.4546050000000  0.4486020000000 1.0
C      1  0.4685540000000  0.5453950000000  0.5513980000000 1.0
C      1  0.5453950000000  0.5513980000000  0.5314460000000 1.0
C      1  0.4486020000000  0.5314460000000  0.4546050000000 1.0
C      1  0.4685540000000  0.4546050000000  0.5513980000000 1.0
C      1  0.5453950000000  0.4486020000000  0.4685540000000 1.0
C      1  0.4546050000000  0.5513980000000  0.4685540000000 1.0
C      1  0.4546050000000  0.4486020000000  0.5314460000000 1.0
C      1  0.4486020000000  0.4685540000000  0.5453950000000 1.0
C      1  0.5513980000000  0.5314460000000  0.5453950000000 1.0
C      1  0.5513980000000  0.4685540000000  0.4546050000000 1.0
C      1  0.4685540000000  0.5453950000000  0.4486020000000 1.0
C      1  0.5314460000000  0.4546050000000  0.4486020000000 1.0
C      1  0.5314460000000  0.5453950000000  0.5513980000000 1.0
C      1  0.5166560000000  0.4704190000000  0.4779860000000 1.0
C      1  0.4704190000000  0.4779860000000  0.5166560000000 1.0
C      1  0.4779860000000  0.5166560000000  0.4704190000000 1.0
C      1  0.5166560000000  0.5295810000000  0.5220140000000 1.0
C      1  0.4833440000000  0.4704190000000  0.5220140000000 1.0
C      1  0.4833440000000  0.5295810000000  0.4779860000000 1.0
C      1  0.4704190000000  0.5220140000000  0.4833440000000 1.0
C      1  0.5295810000000  0.4779860000000  0.4833440000000 1.0
C      1  0.5295810000000  0.5220140000000  0.5166560000000 1.0
C      1  0.4779860000000  0.4833440000000  0.5295810000000 1.0
C      1  0.5220140000000  0.5166560000000  0.5295810000000 1.0
C      1  0.5220140000000  0.4833440000000  0.4704190000000 1.0
C      1  0.4833440000000  0.4704190000000  0.4779860000000 1.0
C      1  0.5295810000000  0.4779860000000  0.5166560000000 1.0
C      1  0.5220140000000  0.5166560000000  0.4704190000000 1.0
C      1  0.4833440000000  0.5295810000000  0.5220140000000 1.0
C      1  0.5166560000000  0.4704190000000  0.5220140000000 1.0
C      1  0.5166560000000  0.5295810000000  0.4779860000000 1.0
C      1  0.5295810000000  0.5220140000000  0.4833440000000 1.0
C      1  0.4704190000000  0.4779860000000  0.4833440000000 1.0
C      1  0.4704190000000  0.5220140000000  0.5166560000000 1.0
C      1  0.5220140000000  0.4833440000000  0.5295810000000 1.0
C      1  0.4779860000000  0.5166560000000  0.5295810000000 1.0
C      1  0.4779860000000  0.4833440000000  0.4704190000000 1.0
C      1  0.5502380000000  0.4475000000000  0.5072080000000 1.0
C      1  0.4475000000000  0.5072080000000  0.5502380000000 1.0
C      1  0.5072080000000  0.5502380000000  0.4475000000000 1.0
C      1  0.5502380000000  0.5525000000000  0.4927920000000 1.0
C      1  0.4497620000000  0.4475000000000  0.4927920000000 1.0
C      1  0.4497620000000  0.5525000000000  0.5072080000000 1.0
C      1  0.4475000000000  0.4927920000000  0.4497620000000 1.0
C      1  0.5525000000000  0.5072080000000  0.4497620000000 1.0
C      1  0.5525000000000  0.4927920000000  0.5502380000000 1.0
C      1  0.5072080000000  0.4497620000000  0.5525000000000 1.0
C      1  0.4927920000000  0.5502380000000  0.5525000000000 1.0
C      1  0.4927920000000  0.4497620000000  0.4475000000000 1.0
C      1  0.4497620000000  0.4475000000000  0.5072080000000 1.0
C      1  0.5525000000000  0.5072080000000  0.5502380000000 1.0
C      1  0.4927920000000  0.5502380000000  0.4475000000000 1.0
C      1  0.4497620000000  0.5525000000000  0.4927920000000 1.0
C      1  0.5502380000000  0.4475000000000  0.4927920000000 1.0
C      1  0.5502380000000  0.5525000000000  0.5072080000000 1.0
C      1  0.5525000000000  0.4927920000000  0.4497620000000 1.0
C      1  0.4475000000000  0.5072080000000  0.4497620000000 1.0
C      1  0.4475000000000  0.4927920000000  0.5502380000000 1.0
C      1  0.4927920000000  0.4497620000000  0.5525000000000 1.0
C      1  0.5072080000000  0.5502380000000  0.5525000000000 1.0
C      1  0.5072080000000  0.4497620000000  0.4475000000000 1.0
C      1  0.5237350000000  0.5636640000000  0.4625050000000 1.0
C      1  0.5636640000000  0.4625050000000  0.5237350000000 1.0
C      1  0.4625050000000  0.5237350000000  0.5636640000000 1.0
C      1  0.5237350000000  0.4363360000000  0.5374950000000 1.0
C      1  0.4762650000000  0.5636640000000  0.5374950000000 1.0
C      1  0.4762650000000  0.4363360000000  0.4625050000000 1.0
C      1  0.5636640000000  0.5374950000000  0.4762650000000 1.0
C      1  0.4363360000000  0.4625050000000  0.4762650000000 1.0
C      1  0.4363360000000  0.5374950000000  0.5237350000000 1.0
C      1  0.4625050000000  0.4762650000000  0.4363360000000 1.0
C      1  0.5374950000000  0.5237350000000  0.4363360000000 1.0
C      1  0.5374950000000  0.4762650000000  0.5636640000000 1.0
C      1  0.4762650000000  0.5636640000000  0.4625050000000 1.0
C      1  0.4363360000000  0.4625050000000  0.5237350000000 1.0
C      1  0.5374950000000  0.5237350000000  0.5636640000000 1.0
C      1  0.4762650000000  0.4363360000000  0.5374950000000 1.0
C      1  0.5237350000000  0.5636640000000  0.5374950000000 1.0
C      1  0.5237350000000  0.4363360000000  0.4625050000000 1.0
C      1  0.4363360000000  0.5374950000000  0.4762650000000 1.0
C      1  0.5636640000000  0.4625050000000  0.4762650000000 1.0
C      1  0.5636640000000  0.5374950000000  0.5237350000000 1.0
C      1  0.5374950000000  0.4762650000000  0.4363360000000 1.0
C      1  0.4625050000000  0.5237350000000  0.4363360000000 1.0
C      1  0.4625050000000  0.4762650000000  0.5636640000000 1.0
C      1  0.5568250000000  0.4596860000000  0.5115940000000 1.0
C      1  0.4596860000000  0.5115940000000  0.5568250000000 1.0
C      1  0.5115940000000  0.5568250000000  0.4596860000000 1.0
C      1  0.5568250000000  0.5403140000000  0.4884060000000 1.0
C      1  0.4431750000000  0.4596860000000  0.4884060000000 1.0
C      1  0.4431750000000  0.5403140000000  0.5115940000000 1.0
C      1  0.4596860000000  0.4884060000000  0.4431750000000 1.0
C      1  0.5403140000000  0.5115940000000  0.4431750000000 1.0
C      1  0.5403140000000  0.4884060000000  0.5568250000000 1.0
C      1  0.5115940000000  0.4431750000000  0.5403140000000 1.0
C      1  0.4884060000000  0.5568250000000  0.5403140000000 1.0
C      1  0.4884060000000  0.4431750000000  0.4596860000000 1.0
C      1  0.4431750000000  0.4596860000000  0.5115940000000 1.0
C      1  0.5403140000000  0.5115940000000  0.5568250000000 1.0
C      1  0.4884060000000  0.5568250000000  0.4596860000000 1.0
C      1  0.4431750000000  0.5403140000000  0.4884060000000 1.0
C      1  0.5568250000000  0.4596860000000  0.4884060000000 1.0
C      1  0.5568250000000  0.5403140000000  0.5115940000000 1.0
C      1  0.5403140000000  0.4884060000000  0.4431750000000 1.0
C      1  0.4596860000000  0.5115940000000  0.4431750000000 1.0
C      1  0.4596860000000  0.4884060000000  0.5568250000000 1.0
C      1  0.4884060000000  0.4431750000000  0.5403140000000 1.0
C      1  0.5115940000000  0.5568250000000  0.5403140000000 1.0
C      1  0.5115940000000  0.4431750000000  0.4596860000000 1.0
C      1  0.5203280000000  0.5145990000000  0.5072650000000 1.0
C      1  0.5145990000000  0.5072650000000  0.5203280000000 1.0
C      1  0.5072650000000  0.5203280000000  0.5145990000000 1.0
C      1  0.5203280000000  0.4854010000000  0.4927350000000 1.0
C      1  0.4796720000000  0.5145990000000  0.4927350000000 1.0
C      1  0.4796720000000  0.4854010000000  0.5072650000000 1.0
C      1  0.5145990000000  0.4927350000000  0.4796720000000 1.0
C      1  0.4854010000000  0.5072650000000  0.4796720000000 1.0
C      1  0.4854010000000  0.4927350000000  0.5203280000000 1.0
C      1  0.5072650000000  0.4796720000000  0.4854010000000 1.0
C      1  0.4927350000000  0.5203280000000  0.4854010000000 1.0
C      1  0.4927350000000  0.4796720000000  0.5145990000000 1.0
C      1  0.4796720000000  0.5145990000000  0.5072650000000 1.0
C      1  0.4854010000000  0.5072650000000  0.5203280000000 1.0
C      1  0.4927350000000  0.5203280000000  0.5145990000000 1.0
C      1  0.4796720000000  0.4854010000000  0.4927350000000 1.0
C      1  0.5203280000000  0.5145990000000  0.4927350000000 1.0
C      1  0.5203280000000  0.4854010000000  0.5072650000000 1.0
C      1  0.4854010000000  0.4927350000000  0.4796720000000 1.0
C      1  0.5145990000000  0.5072650000000  0.4796720000000 1.0
C      1  0.5145990000000  0.4927350000000  0.5203280000000 1.0
C      1  0.4927350000000  0.4796720000000  0.4854010000000 1.0
C      1  0.5072650000000  0.5203280000000  0.4854010000000 1.0
C      1  0.5072650000000  0.4796720000000  0.5145990000000 1.0
C      1  0.4596570000000  0.5346270000000  0.4453010000000 1.0
C      1  0.5346270000000  0.4453010000000  0.4596570000000 1.0
C      1  0.4453010000000  0.4596570000000  0.5346270000000 1.0
C      1  0.4596570000000  0.4653730000000  0.5546990000000 1.0
C      1  0.5403430000000  0.5346270000000  0.5546990000000 1.0
C      1  0.5403430000000  0.4653730000000  0.4453010000000 1.0
C      1  0.5346270000000  0.5546990000000  0.5403430000000 1.0
C      1  0.4653730000000  0.4453010000000  0.5403430000000 1.0
C      1  0.4653730000000  0.5546990000000  0.4596570000000 1.0
C      1  0.4453010000000  0.5403430000000  0.4653730000000 1.0
C      1  0.5546990000000  0.4596570000000  0.4653730000000 1.0
C      1  0.5546990000000  0.5403430000000  0.5346270000000 1.0
C      1  0.5403430000000  0.5346270000000  0.4453010000000 1.0
C      1  0.4653730000000  0.4453010000000  0.4596570000000 1.0
C      1  0.5546990000000  0.4596570000000  0.5346270000000 1.0
C      1  0.5403430000000  0.4653730000000  0.5546990000000 1.0
C      1  0.4596570000000  0.5346270000000  0.5546990000000 1.0
C      1  0.4596570000000  0.4653730000000  0.4453010000000 1.0
C      1  0.4653730000000  0.5546990000000  0.5403430000000 1.0
C      1  0.5346270000000  0.4453010000000  0.5403430000000 1.0
C      1  0.5346270000000  0.5546990000000  0.4596570000000 1.0
C      1  0.5546990000000  0.5403430000000  0.4653730000000 1.0
C      1  0.4453010000000  0.4596570000000  0.4653730000000 1.0
C      1  0.4453010000000  0.5403430000000  0.5346270000000 1.0
C      1  0.5063920000000  0.5181700000000  0.5479280000000 1.0
C      1  0.5181700000000  0.5479280000000  0.5063920000000 1.0
C      1  0.5479280000000  0.5063920000000  0.5181700000000 1.0
C      1  0.5063920000000  0.4818300000000  0.4520720000000 1.0
C      1  0.4936080000000  0.5181700000000  0.4520720000000 1.0
C      1  0.4936080000000  0.4818300000000  0.5479280000000 1.0
C      1  0.5181700000000  0.4520720000000  0.4936080000000 1.0
C      1  0.4818300000000  0.5479280000000  0.4936080000000 1.0
C      1  0.4818300000000  0.4520720000000  0.5063920000000 1.0
C      1  0.5479280000000  0.4936080000000  0.4818300000000 1.0
C      1  0.4520720000000  0.5063920000000  0.4818300000000 1.0
C      1  0.4520720000000  0.4936080000000  0.5181700000000 1.0
C      1  0.4936080000000  0.5181700000000  0.5479280000000 1.0
C      1  0.4818300000000  0.5479280000000  0.5063920000000 1.0
C      1  0.4520720000000  0.5063920000000  0.5181700000000 1.0
C      1  0.4936080000000  0.4818300000000  0.4520720000000 1.0
C      1  0.5063920000000  0.5181700000000  0.4520720000000 1.0
C      1  0.5063920000000  0.4818300000000  0.5479280000000 1.0
C      1  0.4818300000000  0.4520720000000  0.4936080000000 1.0
C      1  0.5181700000000  0.5479280000000  0.4936080000000 1.0
C      1  0.5181700000000  0.4520720000000  0.5063920000000 1.0
C      1  0.4520720000000  0.4936080000000  0.4818300000000 1.0
C      1  0.5479280000000  0.5063920000000  0.4818300000000 1.0
C      1  0.5479280000000  0.4936080000000  0.5181700000000 1.0
C      1  0.4543130000000  0.5570610000000  0.4811190000000 1.0
C      1  0.5570610000000  0.4811190000000  0.4543130000000 1.0
C      1  0.4811190000000  0.4543130000000  0.5570610000000 1.0
C      1  0.4543130000000  0.4429390000000  0.5188810000000 1.0
C      1  0.5456870000000  0.5570610000000  0.5188810000000 1.0
C      1  0.5456870000000  0.4429390000000  0.4811190000000 1.0
C      1  0.5570610000000  0.5188810000000  0.5456870000000 1.0
C      1  0.4429390000000  0.4811190000000  0.5456870000000 1.0
C      1  0.4429390000000  0.5188810000000  0.4543130000000 1.0
C      1  0.4811190000000  0.5456870000000  0.4429390000000 1.0
C      1  0.5188810000000  0.4543130000000  0.4429390000000 1.0
C      1  0.5188810000000  0.5456870000000  0.5570610000000 1.0
C      1  0.5456870000000  0.5570610000000  0.4811190000000 1.0
C      1  0.4429390000000  0.4811190000000  0.4543130000000 1.0
C      1  0.5188810000000  0.4543130000000  0.5570610000000 1.0
C      1  0.5456870000000  0.4429390000000  0.5188810000000 1.0
C      1  0.4543130000000  0.5570610000000  0.5188810000000 1.0
C      1  0.4543130000000  0.4429390000000  0.4811190000000 1.0
C      1  0.4429390000000  0.5188810000000  0.5456870000000 1.0
C      1  0.5570610000000  0.4811190000000  0.5456870000000 1.0
C      1  0.5570610000000  0.5188810000000  0.4543130000000 1.0
C      1  0.5188810000000  0.5456870000000  0.4429390000000 1.0
C      1  0.4811190000000  0.4543130000000  0.4429390000000 1.0
C      1  0.4811190000000  0.5456870000000  0.5570610000000 1.0
C      1  0.4251890000000  0.5286400000000  0.4797300000000 1.0
C      1  0.5286400000000  0.4797300000000  0.4251890000000 1.0
C      1  0.4797300000000  0.4251890000000  0.5286400000000 1.0
C      1  0.4251890000000  0.4713600000000  0.5202700000000 1.0
C      1  0.5748110000000  0.5286400000000  0.5202700000000 1.0
C      1  0.5748110000000  0.4713600000000  0.4797300000000 1.0
C      1  0.5286400000000  0.5202700000000  0.5748110000000 1.0
C      1  0.4713600000000  0.4797300000000  0.5748110000000 1.0
C      1  0.4713600000000  0.5202700000000  0.4251890000000 1.0
C      1  0.4797300000000  0.5748110000000  0.4713600000000 1.0
C      1  0.5202700000000  0.4251890000000  0.4713600000000 1.0
C      1  0.5202700000000  0.5748110000000  0.5286400000000 1.0
C      1  0.5748110000000  0.5286400000000  0.4797300000000 1.0
C      1  0.4713600000000  0.4797300000000  0.4251890000000 1.0
C      1  0.5202700000000  0.4251890000000  0.5286400000000 1.0
C      1  0.5748110000000  0.4713600000000  0.5202700000000 1.0
C      1  0.4251890000000  0.5286400000000  0.5202700000000 1.0
C      1  0.4251890000000  0.4713600000000  0.4797300000000 1.0
C      1  0.4713600000000  0.5202700000000  0.5748110000000 1.0
C      1  0.5286400000000  0.4797300000000  0.5748110000000 1.0
C      1  0.5286400000000  0.5202700000000  0.4251890000000 1.0
C      1  0.5202700000000  0.5748110000000  0.4713600000000 1.0
C      1  0.4797300000000  0.4251890000000  0.4713600000000 1.0
C      1  0.4797300000000  0.5748110000000  0.5286400000000 1.0
C      1  0.4721800000000  0.5793570000000  0.5179900000000 1.0
C      1  0.5793570000000  0.5179900000000  0.4721800000000 1.0
C      1  0.5179900000000  0.4721800000000  0.5793570000000 1.0
C      1  0.4721800000000  0.4206430000000  0.4820100000000 1.0
C      1  0.5278200000000  0.5793570000000  0.4820100000000 1.0
C      1  0.5278200000000  0.4206430000000  0.5179900000000 1.0
C      1  0.5793570000000  0.4820100000000  0.5278200000000 1.0
C      1  0.4206430000000  0.5179900000000  0.5278200000000 1.0
C      1  0.4206430000000  0.4820100000000  0.4721800000000 1.0
C      1  0.5179900000000  0.5278200000000  0.4206430000000 1.0
C      1  0.4820100000000  0.4721800000000  0.4206430000000 1.0
C      1  0.4820100000000  0.5278200000000  0.5793570000000 1.0
C      1  0.5278200000000  0.5793570000000  0.5179900000000 1.0
C      1  0.4206430000000  0.5179900000000  0.4721800000000 1.0
C      1  0.4820100000000  0.4721800000000  0.5793570000000 1.0
C      1  0.5278200000000  0.4206430000000  0.4820100000000 1.0
C      1  0.4721800000000  0.5793570000000  0.4820100000000 1.0
C      1  0.4721800000000  0.4206430000000  0.5179900000000 1.0
C      1  0.4206430000000  0.4820100000000  0.5278200000000 1.0
C      1  0.5793570000000  0.5179900000000  0.5278200000000 1.0
C      1  0.5793570000000  0.4820100000000  0.4721800000000 1.0
C      1  0.4820100000000  0.5278200000000  0.4206430000000 1.0
C      1  0.5179900000000  0.4721800000000  0.4206430000000 1.0
C      1  0.5179900000000  0.5278200000000  0.5793570000000 1.0
C      1  0.5193690000000  0.4840500000000  0.5438960000000 1.0
C      1  0.4840500000000  0.5438960000000  0.5193690000000 1.0
C      1  0.5438960000000  0.5193690000000  0.4840500000000 1.0
C      1  0.5193690000000  0.5159500000000  0.4561040000000 1.0
C      1  0.4806310000000  0.4840500000000  0.4561040000000 1.0
C      1  0.4806310000000  0.5159500000000  0.5438960000000 1.0
C      1  0.4840500000000  0.4561040000000  0.4806310000000 1.0
C      1  0.5159500000000  0.5438960000000  0.4806310000000 1.0
C      1  0.5159500000000  0.4561040000000  0.5193690000000 1.0
C      1  0.5438960000000  0.4806310000000  0.5159500000000 1.0
C      1  0.4561040000000  0.5193690000000  0.5159500000000 1.0
C      1  0.4561040000000  0.4806310000000  0.4840500000000 1.0
C      1  0.4806310000000  0.4840500000000  0.5438960000000 1.0
C      1  0.5159500000000  0.5438960000000  0.5193690000000 1.0
C      1  0.4561040000000  0.5193690000000  0.4840500000000 1.0
C      1  0.4806310000000  0.5159500000000  0.4561040000000 1.0
C      1  0.5193690000000  0.4840500000000  0.4561040000000 1.0
C      1  0.5193690000000  0.5159500000000  0.5438960000000 1.0
C      1  0.5159500000000  0.4561040000000  0.4806310000000 1.0
C      1  0.4840500000000  0.5438960000000  0.4806310000000 1.0
C      1  0.4840500000000  0.4561040000000  0.5193690000000 1.0
C      1  0.4561040000000  0.4806310000000  0.5159500000000 1.0
C      1  0.5438960000000  0.5193690000000  0.5159500000000 1.0
C      1  0.5438960000000  0.4806310000000  0.4840500000000 1.0
C      1  0.4676530000000  0.4182420000000  0.5065980000000 1.0
C      1  0.4182420000000  0.5065980000000  0.4676530000000 1.0
C      1  0.5065980000000  0.4676530000000  0.4182420000000 1.0
C      1  0.4676530000000  0.5817580000000  0.4934020000000 1.0
C      1  0.5323470000000  0.4182420000000  0.4934020000000 1.0
C      1  0.5323470000000  0.5817580000000  0.5065980000000 1.0
C      1  0.4182420000000  0.4934020000000  0.5323470000000 1.0
C      1  0.5817580000000  0.5065980000000  0.5323470000000 1.0
C      1  0.5817580000000  0.4934020000000  0.4676530000000 1.0
C      1  0.5065980000000  0.5323470000000  0.5817580000000 1.0
C      1  0.4934020000000  0.4676530000000  0.5817580000000 1.0
C      1  0.4934020000000  0.5323470000000  0.4182420000000 1.0
C      1  0.5323470000000  0.4182420000000  0.5065980000000 1.0
C      1  0.5817580000000  0.5065980000000  0.4676530000000 1.0
C      1  0.4934020000000  0.4676530000000  0.4182420000000 1.0
C      1  0.5323470000000  0.5817580000000  0.4934020000000 1.0
C      1  0.4676530000000  0.4182420000000  0.4934020000000 1.0
C      1  0.4676530000000  0.5817580000000  0.5065980000000 1.0
C      1  0.5817580000000  0.4934020000000  0.5323470000000 1.0
C      1  0.4182420000000  0.5065980000000  0.5323470000000 1.0
C      1  0.4182420000000  0.4934020000000  0.4676530000000 1.0
C      1  0.4934020000000  0.5323470000000  0.5817580000000 1.0
C      1  0.5065980000000  0.4676530000000  0.5817580000000 1.0
C      1  0.5065980000000  0.5323470000000  0.4182420000000 1.0
END
