TITL C-1887023-9817-80 -1.2157628791519e-06 1000000 -2904.28316495779 0 0 400 (Td) n - 1
REM
REM in /nfs/bkarasulu/CARBON/AIRSS/Generating-Clusters/GAP-ML-2020/Higher-Symm/Selected-Sizes/TryA-Only_Ih-Symm/Larger-Clusters
REM
REM
REM
REM
REM
REM ./C.cell (2cf5181f0f1d4d5b12b972d32ad12063)
REM
REM compiler GCC version 9.2.1 20190827 (Red Hat 9.2.1-1)
REM options -cpp -mtune=generic -march=x86-64 -g -O0 -fpre-include=/usr/include/finclude/math-vector-fortran.h
REM seed -830689219 2086839316 -857940585 -1319713388 -1429936087 1301937946 1392824543 1025538191 -1232259840 -1210121250 1969312288 603407630 -712936200 2129421688 2124234492 1125515620 -553793901 -702127115 -1173278226 329545845 -1614739698 1267775151 959234918 1308943335 -323930879 1645678384 -513897416 -1157823829 -1060049483 1472978648 -886144631 58323805 1003592939
REM
CELL 1.54180  100.00000  100.00000  100.00000   90.00000   90.00000   90.00000
LATT -1
SFAC C  
C      1  0.4284150000000  0.4671090000000  0.5070480000000 1.0
C      1  0.5069250000000  0.4282990000000  0.4673480000000 1.0
C      1  0.4672250000000  0.5068100000000  0.4285380000000 1.0
C      1  0.5720630000000  0.5331370000000  0.5070480000000 1.0
C      1  0.5720630000000  0.4671090000000  0.4936760000000 1.0
C      1  0.4284150000000  0.5331370000000  0.4936760000000 1.0
C      1  0.4935520000000  0.5719470000000  0.4673480000000 1.0
C      1  0.4935520000000  0.4282990000000  0.5333760000000 1.0
C      1  0.5069250000000  0.5719470000000  0.5333760000000 1.0
C      1  0.5332530000000  0.4934370000000  0.4285380000000 1.0
C      1  0.5332530000000  0.5068100000000  0.5721860000000 1.0
C      1  0.4672250000000  0.4934370000000  0.5721860000000 1.0
C      1  0.4672250000000  0.4282990000000  0.5070480000000 1.0
C      1  0.4284150000000  0.5068090000000  0.4673480000000 1.0
C      1  0.5069250000000  0.4671090000000  0.4285380000000 1.0
C      1  0.5332530000000  0.5719470000000  0.5070480000000 1.0
C      1  0.4672250000000  0.5719470000000  0.4936760000000 1.0
C      1  0.5332530000000  0.4282990000000  0.4936760000000 1.0
C      1  0.5720630000000  0.4934370000000  0.4673480000000 1.0
C      1  0.4284150000000  0.4934370000000  0.5333760000000 1.0
C      1  0.5720630000000  0.5068100000000  0.5333760000000 1.0
C      1  0.4935520000000  0.5331370000000  0.4285380000000 1.0
C      1  0.5069250000000  0.5331370000000  0.5721860000000 1.0
C      1  0.4935520000000  0.4671090000000  0.5721860000000 1.0
C      1  0.4378940000000  0.5174740000000  0.5413470000000 1.0
C      1  0.5412240000000  0.4377790000000  0.5177120000000 1.0
C      1  0.5175890000000  0.5411080000000  0.4380170000000 1.0
C      1  0.5625830000000  0.4827730000000  0.5413470000000 1.0
C      1  0.5625830000000  0.5174740000000  0.4593770000000 1.0
C      1  0.4378940000000  0.4827730000000  0.4593770000000 1.0
C      1  0.4592530000000  0.5624680000000  0.5177120000000 1.0
C      1  0.4592530000000  0.4377780000000  0.4830110000000 1.0
C      1  0.5412240000000  0.5624680000000  0.4830110000000 1.0
C      1  0.4828880000000  0.4591380000000  0.4380170000000 1.0
C      1  0.4828880000000  0.5411080000000  0.5627070000000 1.0
C      1  0.5175890000000  0.4591380000000  0.5627070000000 1.0
C      1  0.5175890000000  0.4377790000000  0.5413470000000 1.0
C      1  0.4378940000000  0.5411080000000  0.5177120000000 1.0
C      1  0.5412240000000  0.5174740000000  0.4380170000000 1.0
C      1  0.4828880000000  0.5624680000000  0.5413470000000 1.0
C      1  0.5175890000000  0.5624680000000  0.4593770000000 1.0
C      1  0.4828880000000  0.4377780000000  0.4593770000000 1.0
C      1  0.5625830000000  0.4591380000000  0.5177120000000 1.0
C      1  0.4378940000000  0.4591380000000  0.4830110000000 1.0
C      1  0.5625830000000  0.5411080000000  0.4830110000000 1.0
C      1  0.4592530000000  0.4827730000000  0.4380170000000 1.0
C      1  0.5412240000000  0.4827730000000  0.5627070000000 1.0
C      1  0.4592530000000  0.5174740000000  0.5627070000000 1.0
C      1  0.5666840000000  0.4724680000000  0.4822820000000 1.0
C      1  0.4821590000000  0.5665690000000  0.4727060000000 1.0
C      1  0.4725830000000  0.4820440000000  0.5668070000000 1.0
C      1  0.4337930000000  0.5277790000000  0.4822820000000 1.0
C      1  0.4337930000000  0.4724680000000  0.5184410000000 1.0
C      1  0.5666840000000  0.5277790000000  0.5184410000000 1.0
C      1  0.5183180000000  0.4336780000000  0.4727060000000 1.0
C      1  0.5183180000000  0.5665690000000  0.5280180000000 1.0
C      1  0.4821590000000  0.4336780000000  0.5280180000000 1.0
C      1  0.5278940000000  0.5182030000000  0.5668070000000 1.0
C      1  0.5278940000000  0.4820440000000  0.4339160000000 1.0
C      1  0.4725830000000  0.5182030000000  0.4339160000000 1.0
C      1  0.4725830000000  0.5665690000000  0.4822820000000 1.0
C      1  0.5666840000000  0.4820440000000  0.4727060000000 1.0
C      1  0.4821590000000  0.4724680000000  0.5668070000000 1.0
C      1  0.5278940000000  0.4336780000000  0.4822820000000 1.0
C      1  0.4725830000000  0.4336780000000  0.5184410000000 1.0
C      1  0.5278940000000  0.5665690000000  0.5184420000000 1.0
C      1  0.4337930000000  0.5182030000000  0.4727060000000 1.0
C      1  0.5666840000000  0.5182030000000  0.5280180000000 1.0
C      1  0.4337930000000  0.4820440000000  0.5280180000000 1.0
C      1  0.5183180000000  0.5277790000000  0.5668070000000 1.0
C      1  0.4821590000000  0.5277790000000  0.4339160000000 1.0
C      1  0.5183180000000  0.4724680000000  0.4339160000000 1.0
C      1  0.4390450000000  0.4485480000000  0.5191040000000 1.0
C      1  0.5189800000000  0.4389290000000  0.4487860000000 1.0
C      1  0.4486630000000  0.5188650000000  0.4391680000000 1.0
C      1  0.5614330000000  0.5516990000000  0.5191040000000 1.0
C      1  0.5614320000000  0.4485480000000  0.4816200000000 1.0
C      1  0.4390450000000  0.5516990000000  0.4816200000000 1.0
C      1  0.4814970000000  0.5613170000000  0.4487860000000 1.0
C      1  0.4814970000000  0.4389300000000  0.5519370000000 1.0
C      1  0.5189800000000  0.5613170000000  0.5519370000000 1.0
C      1  0.5518140000000  0.4813820000000  0.4391680000000 1.0
C      1  0.5518140000000  0.5188650000000  0.5615550000000 1.0
C      1  0.4486630000000  0.4813820000000  0.5615560000000 1.0
C      1  0.4486630000000  0.4389290000000  0.5191040000000 1.0
C      1  0.4390450000000  0.5188650000000  0.4487860000000 1.0
C      1  0.5189800000000  0.4485480000000  0.4391680000000 1.0
C      1  0.5518140000000  0.5613170000000  0.5191040000000 1.0
C      1  0.4486630000000  0.5613170000000  0.4816200000000 1.0
C      1  0.5518140000000  0.4389300000000  0.4816200000000 1.0
C      1  0.5614330000000  0.4813820000000  0.4487860000000 1.0
C      1  0.4390450000000  0.4813820000000  0.5519370000000 1.0
C      1  0.5614320000000  0.5188650000000  0.5519370000000 1.0
C      1  0.4814970000000  0.5516990000000  0.4391680000000 1.0
C      1  0.5189800000000  0.5516990000000  0.5615560000000 1.0
C      1  0.4814970000000  0.4485480000000  0.5615560000000 1.0
C      1  0.5465010000000  0.4937930000000  0.4340210000000 1.0
C      1  0.4338970000000  0.5463850000000  0.4940320000000 1.0
C      1  0.4939090000000  0.4337820000000  0.5466240000000 1.0
C      1  0.4539770000000  0.5064530000000  0.4340210000000 1.0
C      1  0.4539770000000  0.4937930000000  0.5667030000000 1.0
C      1  0.5465010000000  0.5064530000000  0.5667030000000 1.0
C      1  0.5665800000000  0.4538610000000  0.4940320000000 1.0
C      1  0.5665800000000  0.5463850000000  0.5066920000000 1.0
C      1  0.4338970000000  0.4538610000000  0.5066920000000 1.0
C      1  0.5065680000000  0.5664650000000  0.5466240000000 1.0
C      1  0.5065680000000  0.4337820000000  0.4541000000000 1.0
C      1  0.4939090000000  0.5664650000000  0.4541000000000 1.0
C      1  0.4939090000000  0.5463850000000  0.4340210000000 1.0
C      1  0.5465010000000  0.4337820000000  0.4940320000000 1.0
C      1  0.4338970000000  0.4937930000000  0.5466240000000 1.0
C      1  0.5065680000000  0.4538610000000  0.4340210000000 1.0
C      1  0.4939090000000  0.4538610000000  0.5667030000000 1.0
C      1  0.5065680000000  0.5463850000000  0.5667030000000 1.0
C      1  0.4539770000000  0.5664650000000  0.4940320000000 1.0
C      1  0.5465010000000  0.5664650000000  0.5066920000000 1.0
C      1  0.4539770000000  0.4337820000000  0.5066920000000 1.0
C      1  0.5665800000000  0.5064530000000  0.5466240000000 1.0
C      1  0.4338970000000  0.5064530000000  0.4541000000000 1.0
C      1  0.5665800000000  0.4937930000000  0.4541000000000 1.0
C      1  0.5171680000000  0.5686820000000  0.4730020000000 1.0
C      1  0.4728790000000  0.5170530000000  0.5689210000000 1.0
C      1  0.5687980000000  0.4727630000000  0.5172920000000 1.0
C      1  0.4833090000000  0.4315640000000  0.4730020000000 1.0
C      1  0.4833090000000  0.5686820000000  0.5277220000000 1.0
C      1  0.5171680000000  0.4315640000000  0.5277220000000 1.0
C      1  0.5275990000000  0.4831940000000  0.5689210000000 1.0
C      1  0.5275990000000  0.5170530000000  0.4318030000000 1.0
C      1  0.4728790000000  0.4831930000000  0.4318030000000 1.0
C      1  0.4316790000000  0.5274830000000  0.5172920000000 1.0
C      1  0.4316790000000  0.4727630000000  0.4834320000000 1.0
C      1  0.5687980000000  0.5274830000000  0.4834320000000 1.0
C      1  0.5687980000000  0.5170530000000  0.4730020000000 1.0
C      1  0.5171680000000  0.4727630000000  0.5689210000000 1.0
C      1  0.4728790000000  0.5686820000000  0.5172920000000 1.0
C      1  0.4316790000000  0.4831930000000  0.4730020000000 1.0
C      1  0.5687980000000  0.4831930000000  0.5277220000000 1.0
C      1  0.4316790000000  0.5170530000000  0.5277220000000 1.0
C      1  0.4833090000000  0.5274830000000  0.5689210000000 1.0
C      1  0.5171680000000  0.5274830000000  0.4318030000000 1.0
C      1  0.4833090000000  0.4727630000000  0.4318030000000 1.0
C      1  0.5275990000000  0.4315640000000  0.5172920000000 1.0
C      1  0.4728790000000  0.4315640000000  0.4834320000000 1.0
C      1  0.5275990000000  0.5686820000000  0.4834320000000 1.0
C      1  0.4695900000000  0.4465400000000  0.5435340000000 1.0
C      1  0.5434120000000  0.4694750000000  0.4467790000000 1.0
C      1  0.4466560000000  0.5432960000000  0.4697140000000 1.0
C      1  0.5308870000000  0.5537070000000  0.5435350000000 1.0
C      1  0.5308870000000  0.4465400000000  0.4571890000000 1.0
C      1  0.4695910000000  0.5537060000000  0.4571890000000 1.0
C      1  0.4570660000000  0.5307710000000  0.4467790000000 1.0
C      1  0.4570660000000  0.4694750000000  0.5539450000000 1.0
C      1  0.5434110000000  0.5307720000000  0.5539450000000 1.0
C      1  0.5538220000000  0.4569510000000  0.4697130000000 1.0
C      1  0.5538220000000  0.5432960000000  0.5310100000000 1.0
C      1  0.4466550000000  0.4569500000000  0.5310100000000 1.0
C      1  0.4466550000000  0.4694750000000  0.5435350000000 1.0
C      1  0.4695910000000  0.5432960000000  0.4467790000000 1.0
C      1  0.5434110000000  0.4465400000000  0.4697140000000 1.0
C      1  0.5538220000000  0.5307720000000  0.5435340000000 1.0
C      1  0.4466560000000  0.5307710000000  0.4571890000000 1.0
C      1  0.5538220000000  0.4694750000000  0.4571890000000 1.0
C      1  0.5308870000000  0.4569500000000  0.4467790000000 1.0
C      1  0.4695900000000  0.4569510000000  0.5539450000000 1.0
C      1  0.5308870000000  0.5432960000000  0.5539450000000 1.0
C      1  0.4570660000000  0.5537060000000  0.4697140000000 1.0
C      1  0.5434120000000  0.5537070000000  0.5310100000000 1.0
C      1  0.4570660000000  0.4465400000000  0.5310100000000 1.0
C      1  0.4501070000000  0.5061240000000  0.5608660000000 1.0
C      1  0.5607430000000  0.4499920000000  0.5063620000000 1.0
C      1  0.5062390000000  0.5606270000000  0.4502300000000 1.0
C      1  0.5503700000000  0.4941230000000  0.5608660000000 1.0
C      1  0.5503700000000  0.5061240000000  0.4398580000000 1.0
C      1  0.4501070000000  0.4941230000000  0.4398580000000 1.0
C      1  0.4397350000000  0.5502550000000  0.5063620000000 1.0
C      1  0.4397350000000  0.4499920000000  0.4943610000000 1.0
C      1  0.5607430000000  0.5502550000000  0.4943610000000 1.0
C      1  0.4942380000000  0.4396190000000  0.4502300000000 1.0
C      1  0.4942380000000  0.5606270000000  0.5504940000000 1.0
C      1  0.5062390000000  0.4396190000000  0.5504940000000 1.0
C      1  0.5062390000000  0.4499920000000  0.5608660000000 1.0
C      1  0.4501070000000  0.5606270000000  0.5063620000000 1.0
C      1  0.5607430000000  0.5061240000000  0.4502300000000 1.0
C      1  0.4942380000000  0.5502550000000  0.5608660000000 1.0
C      1  0.5062390000000  0.5502550000000  0.4398580000000 1.0
C      1  0.4942380000000  0.4499920000000  0.4398580000000 1.0
C      1  0.5503700000000  0.4396190000000  0.5063620000000 1.0
C      1  0.4501070000000  0.4396190000000  0.4943610000000 1.0
C      1  0.5503700000000  0.5606270000000  0.4943610000000 1.0
C      1  0.4397350000000  0.4941230000000  0.4502300000000 1.0
C      1  0.5607430000000  0.4941230000000  0.5504940000000 1.0
C      1  0.4397350000000  0.5061240000000  0.5504940000000 1.0
C      1  0.5486790000000  0.5105580000000  0.5002100000000 1.0
C      1  0.5000870000000  0.5485630000000  0.5107970000000 1.0
C      1  0.5106740000000  0.4999710000000  0.5488020000000 1.0
C      1  0.4517990000000  0.4896880000000  0.5002100000000 1.0
C      1  0.4517990000000  0.5105580000000  0.5005140000000 1.0
C      1  0.5486790000000  0.4896880000000  0.5005140000000 1.0
C      1  0.5003910000000  0.4516830000000  0.5107970000000 1.0
C      1  0.5003910000000  0.5485630000000  0.4899270000000 1.0
C      1  0.5000870000000  0.4516830000000  0.4899270000000 1.0
C      1  0.4898040000000  0.5002750000000  0.5488020000000 1.0
C      1  0.4898040000000  0.4999710000000  0.4519220000000 1.0
C      1  0.5106740000000  0.5002750000000  0.4519220000000 1.0
C      1  0.5106740000000  0.5485630000000  0.5002100000000 1.0
C      1  0.5486790000000  0.4999710000000  0.5107970000000 1.0
C      1  0.5000870000000  0.5105580000000  0.5488020000000 1.0
C      1  0.4898040000000  0.4516830000000  0.5002100000000 1.0
C      1  0.5106740000000  0.4516830000000  0.5005140000000 1.0
C      1  0.4898040000000  0.5485630000000  0.5005140000000 1.0
C      1  0.4517990000000  0.5002750000000  0.5107970000000 1.0
C      1  0.5486790000000  0.5002750000000  0.4899270000000 1.0
C      1  0.4517990000000  0.4999710000000  0.4899270000000 1.0
C      1  0.5003910000000  0.4896880000000  0.5488020000000 1.0
C      1  0.5000870000000  0.4896880000000  0.4519220000000 1.0
C      1  0.5003910000000  0.5105580000000  0.4519220000000 1.0
C      1  0.5041730000000  0.5240830000000  0.4264270000000 1.0
C      1  0.4263030000000  0.5040580000000  0.5243210000000 1.0
C      1  0.5241980000000  0.4261880000000  0.5042960000000 1.0
C      1  0.4963040000000  0.4761640000000  0.4264270000000 1.0
C      1  0.4963040000000  0.5240830000000  0.5742970000000 1.0
C      1  0.5041730000000  0.4761640000000  0.5742970000000 1.0
C      1  0.5741740000000  0.4961890000000  0.5243210000000 1.0
C      1  0.5741740000000  0.5040580000000  0.4764020000000 1.0
C      1  0.4263030000000  0.4961890000000  0.4764030000000 1.0
C      1  0.4762790000000  0.5740590000000  0.5042960000000 1.0
C      1  0.4762790000000  0.4261880000000  0.4964270000000 1.0
C      1  0.5241980000000  0.5740590000000  0.4964270000000 1.0
C      1  0.5241980000000  0.5040580000000  0.4264270000000 1.0
C      1  0.5041730000000  0.4261880000000  0.5243210000000 1.0
C      1  0.4263030000000  0.5240830000000  0.5042960000000 1.0
C      1  0.4762790000000  0.4961890000000  0.4264270000000 1.0
C      1  0.5241980000000  0.4961890000000  0.5742970000000 1.0
C      1  0.4762790000000  0.5040580000000  0.5742970000000 1.0
C      1  0.4963040000000  0.5740590000000  0.5243210000000 1.0
C      1  0.5041730000000  0.5740590000000  0.4764030000000 1.0
C      1  0.4963040000000  0.4261880000000  0.4764030000000 1.0
C      1  0.5741740000000  0.4761640000000  0.5042960000000 1.0
C      1  0.4263030000000  0.4761640000000  0.4964270000000 1.0
C      1  0.5741740000000  0.5240830000000  0.4964270000000 1.0
C      1  0.4983180000000  0.4793860000000  0.5396000000000 1.0
C      1  0.5394770000000  0.4982030000000  0.4796250000000 1.0
C      1  0.4795020000000  0.5393610000000  0.4984410000000 1.0
C      1  0.5021590000000  0.5208600000000  0.5396000000000 1.0
C      1  0.5021590000000  0.4793860000000  0.4611240000000 1.0
C      1  0.4983180000000  0.5208600000000  0.4611240000000 1.0
C      1  0.4610000000000  0.5020440000000  0.4796250000000 1.0
C      1  0.4610000000000  0.4982030000000  0.5210990000000 1.0
C      1  0.5394770000000  0.5020440000000  0.5210990000000 1.0
C      1  0.5209760000000  0.4608850000000  0.4984410000000 1.0
C      1  0.5209760000000  0.5393610000000  0.5022820000000 1.0
C      1  0.4795010000000  0.4608850000000  0.5022820000000 1.0
C      1  0.4795010000000  0.4982030000000  0.5396000000000 1.0
C      1  0.4983180000000  0.5393610000000  0.4796250000000 1.0
C      1  0.5394770000000  0.4793860000000  0.4984410000000 1.0
C      1  0.5209760000000  0.5020440000000  0.5396000000000 1.0
C      1  0.4795010000000  0.5020440000000  0.4611240000000 1.0
C      1  0.5209760000000  0.4982030000000  0.4611240000000 1.0
C      1  0.5021590000000  0.4608850000000  0.4796250000000 1.0
C      1  0.4983180000000  0.4608850000000  0.5210990000000 1.0
C      1  0.5021590000000  0.5393610000000  0.5210990000000 1.0
C      1  0.4610000000000  0.5208600000000  0.4984410000000 1.0
C      1  0.5394770000000  0.5208600000000  0.5022820000000 1.0
C      1  0.4610000000000  0.4793860000000  0.5022820000000 1.0
C      1  0.4842740000000  0.5261050000000  0.4944100000000 1.0
C      1  0.4942870000000  0.4841590000000  0.5263430000000 1.0
C      1  0.5262200000000  0.4941720000000  0.4843970000000 1.0
C      1  0.5162030000000  0.4741420000000  0.4944100000000 1.0
C      1  0.5162030000000  0.5261050000000  0.5063130000000 1.0
C      1  0.4842740000000  0.4741420000000  0.5063130000000 1.0
C      1  0.5061900000000  0.5160880000000  0.5263430000000 1.0
C      1  0.5061900000000  0.4841590000000  0.4743800000000 1.0
C      1  0.4942870000000  0.5160880000000  0.4743800000000 1.0
C      1  0.4742570000000  0.5060750000000  0.4843970000000 1.0
C      1  0.4742570000000  0.4941720000000  0.5163270000000 1.0
C      1  0.5262200000000  0.5060750000000  0.5163270000000 1.0
C      1  0.5262200000000  0.4841590000000  0.4944100000000 1.0
C      1  0.4842740000000  0.4941720000000  0.5263430000000 1.0
C      1  0.4942870000000  0.5261050000000  0.4843970000000 1.0
C      1  0.4742570000000  0.5160880000000  0.4944100000000 1.0
C      1  0.5262200000000  0.5160880000000  0.5063130000000 1.0
C      1  0.4742570000000  0.4841590000000  0.5063130000000 1.0
C      1  0.5162030000000  0.5060750000000  0.5263430000000 1.0
C      1  0.4842740000000  0.5060750000000  0.4743800000000 1.0
C      1  0.5162030000000  0.4941720000000  0.4743800000000 1.0
C      1  0.5061900000000  0.4741420000000  0.4843970000000 1.0
C      1  0.4942870000000  0.4741420000000  0.5163260000000 1.0
C      1  0.5061900000000  0.5261050000000  0.5163270000000 1.0
C      1  0.4581780000000  0.4907440000000  0.5327680000000 1.0
C      1  0.5326450000000  0.4580630000000  0.4909830000000 1.0
C      1  0.4908600000000  0.5325290000000  0.4583010000000 1.0
C      1  0.5422990000000  0.5095020000000  0.5327680000000 1.0
C      1  0.5422990000000  0.4907440000000  0.4679560000000 1.0
C      1  0.4581780000000  0.5095020000000  0.4679560000000 1.0
C      1  0.4678330000000  0.5421840000000  0.4909830000000 1.0
C      1  0.4678320000000  0.4580630000000  0.5097410000000 1.0
C      1  0.5326450000000  0.5421840000000  0.5097410000000 1.0
C      1  0.5096180000000  0.4677170000000  0.4583010000000 1.0
C      1  0.5096180000000  0.5325290000000  0.5424220000000 1.0
C      1  0.4908600000000  0.4677170000000  0.5424220000000 1.0
C      1  0.4908600000000  0.4580630000000  0.5327680000000 1.0
C      1  0.4581780000000  0.5325290000000  0.4909830000000 1.0
C      1  0.5326450000000  0.4907440000000  0.4583010000000 1.0
C      1  0.5096180000000  0.5421840000000  0.5327680000000 1.0
C      1  0.4908600000000  0.5421840000000  0.4679560000000 1.0
C      1  0.5096180000000  0.4580630000000  0.4679560000000 1.0
C      1  0.5422990000000  0.4677170000000  0.4909830000000 1.0
C      1  0.4581780000000  0.4677170000000  0.5097410000000 1.0
C      1  0.5422990000000  0.5325290000000  0.5097410000000 1.0
C      1  0.4678330000000  0.5095020000000  0.4583010000000 1.0
C      1  0.5326450000000  0.5095020000000  0.5424220000000 1.0
C      1  0.4678320000000  0.4907440000000  0.5424220000000 1.0
C      1  0.5210440000000  0.5318190000000  0.5519580000000 1.0
C      1  0.5518340000000  0.5209290000000  0.5320570000000 1.0
C      1  0.5319340000000  0.5517190000000  0.5211670000000 1.0
C      1  0.4794330000000  0.4684280000000  0.5519580000000 1.0
C      1  0.4794330000000  0.5318190000000  0.4487660000000 1.0
C      1  0.5210440000000  0.4684280000000  0.4487660000000 1.0
C      1  0.4486430000000  0.4793180000000  0.5320570000000 1.0
C      1  0.4486430000000  0.5209290000000  0.4686660000000 1.0
C      1  0.5518340000000  0.4793180000000  0.4686660000000 1.0
C      1  0.4685430000000  0.4485280000000  0.5211670000000 1.0
C      1  0.4685430000000  0.5517190000000  0.4795570000000 1.0
C      1  0.5319340000000  0.4485280000000  0.4795560000000 1.0
C      1  0.5319340000000  0.5209290000000  0.5519580000000 1.0
C      1  0.5210440000000  0.5517190000000  0.5320570000000 1.0
C      1  0.5518340000000  0.5318190000000  0.5211670000000 1.0
C      1  0.4685430000000  0.4793180000000  0.5519580000000 1.0
C      1  0.5319340000000  0.4793180000000  0.4487660000000 1.0
C      1  0.4685430000000  0.5209290000000  0.4487660000000 1.0
C      1  0.4794330000000  0.4485280000000  0.5320570000000 1.0
C      1  0.5210440000000  0.4485280000000  0.4686660000000 1.0
C      1  0.4794330000000  0.5517190000000  0.4686660000000 1.0
C      1  0.4486430000000  0.4684280000000  0.5211670000000 1.0
C      1  0.5518340000000  0.4684280000000  0.4795570000000 1.0
C      1  0.4486430000000  0.5318190000000  0.4795570000000 1.0
C      1  0.4532000000000  0.4427100000000  0.4713480000000 1.0
C      1  0.4712250000000  0.4530850000000  0.4429490000000 1.0
C      1  0.4428260000000  0.4711090000000  0.4533230000000 1.0
C      1  0.5472770000000  0.5575360000000  0.4713480000000 1.0
C      1  0.5472770000000  0.4427110000000  0.5293760000000 1.0
C      1  0.4532000000000  0.5575360000000  0.5293760000000 1.0
C      1  0.5292530000000  0.5471620000000  0.4429490000000 1.0
C      1  0.5292530000000  0.4530850000000  0.5577750000000 1.0
C      1  0.4712250000000  0.5471620000000  0.5577750000000 1.0
C      1  0.5576510000000  0.5291370000000  0.4533230000000 1.0
C      1  0.5576510000000  0.4711090000000  0.5474000000000 1.0
C      1  0.4428260000000  0.5291370000000  0.5474000000000 1.0
C      1  0.4428260000000  0.4530850000000  0.4713480000000 1.0
C      1  0.4532000000000  0.4711090000000  0.4429490000000 1.0
C      1  0.4712250000000  0.4427100000000  0.4533230000000 1.0
C      1  0.5576510000000  0.5471620000000  0.4713480000000 1.0
C      1  0.4428260000000  0.5471620000000  0.5293760000000 1.0
C      1  0.5576510000000  0.4530850000000  0.5293760000000 1.0
C      1  0.5472770000000  0.5291370000000  0.4429490000000 1.0
C      1  0.4532000000000  0.5291370000000  0.5577750000000 1.0
C      1  0.5472770000000  0.4711090000000  0.5577750000000 1.0
C      1  0.5292530000000  0.5575360000000  0.4533230000000 1.0
C      1  0.4712250000000  0.5575360000000  0.5474000000000 1.0
C      1  0.5292530000000  0.4427110000000  0.5474000000000 1.0
C      1  0.4999410000000  0.5775110000000  0.5107630000000 1.0
C      1  0.5106400000000  0.4998260000000  0.5777500000000 1.0
C      1  0.5776270000000  0.5105250000000  0.5000640000000 1.0
C      1  0.5005360000000  0.4227350000000  0.5107630000000 1.0
C      1  0.5005360000000  0.5775110000000  0.4899600000000 1.0
C      1  0.4999410000000  0.4227350000000  0.4899600000000 1.0
C      1  0.4898370000000  0.5004210000000  0.5777500000000 1.0
C      1  0.4898370000000  0.4998260000000  0.4229740000000 1.0
C      1  0.5106400000000  0.5004210000000  0.4229740000000 1.0
C      1  0.4228510000000  0.4897220000000  0.5000640000000 1.0
C      1  0.4228510000000  0.5105250000000  0.5006600000000 1.0
C      1  0.5776270000000  0.4897220000000  0.5006590000000 1.0
C      1  0.5776270000000  0.4998260000000  0.5107630000000 1.0
C      1  0.4999410000000  0.5105250000000  0.5777500000000 1.0
C      1  0.5106400000000  0.5775110000000  0.5000640000000 1.0
C      1  0.4228510000000  0.5004210000000  0.5107630000000 1.0
C      1  0.5776270000000  0.5004210000000  0.4899600000000 1.0
C      1  0.4228510000000  0.4998260000000  0.4899600000000 1.0
C      1  0.5005360000000  0.4897220000000  0.5777500000000 1.0
C      1  0.4999410000000  0.4897220000000  0.4229740000000 1.0
C      1  0.5005360000000  0.5105250000000  0.4229740000000 1.0
C      1  0.4898370000000  0.4227350000000  0.5000640000000 1.0
C      1  0.5106400000000  0.4227350000000  0.5006590000000 1.0
C      1  0.4898370000000  0.5775110000000  0.5006600000000 1.0
C      1  0.4577760000000  0.5589160000000  0.5428250000000 1.0
C      1  0.5427020000000  0.4576600000000  0.5591540000000 1.0
C      1  0.5427020000000  0.4413310000000  0.5428250000000 1.0
C      1  0.4577760000000  0.5425860000000  0.5591550000000 1.0
C      1  0.5427020000000  0.5425860000000  0.4415690000000 1.0
C      1  0.5590310000000  0.4576600000000  0.5428250000000 1.0
C      1  0.4414460000000  0.5425860000000  0.5428250000000 1.0
C      1  0.5590310000000  0.5425860000000  0.4578990000000 1.0
C      1  0.4414460000000  0.4576600000000  0.4578990000000 1.0
C      1  0.5427020000000  0.5589160000000  0.4578990000000 1.0
C      1  0.4577760000000  0.4413310000000  0.4578990000000 1.0
C      1  0.4577760000000  0.4576600000000  0.4415690000000 1.0
C      1  0.5509800000000  0.4493820000000  0.5511040000000 1.0
C      1  0.5509800000000  0.5508650000000  0.4496200000000 1.0
C      1  0.4494970000000  0.5508650000000  0.5511040000000 1.0
C      1  0.4494970000000  0.4493810000000  0.4496200000000 1.0
END
