TITL C-1887018-2751-87 3.86828596358858e-07 1000000 -2752.54453172685 0 0 380 (Th) n - 1
REM
REM in /nfs/bkarasulu/CARBON/AIRSS/Generating-Clusters/GAP-ML-2020/Higher-Symm/Selected-Sizes/TryA-Only_Ih-Symm/Larger-Clusters
REM
REM
REM
REM
REM
REM ./C.cell (2cf5181f0f1d4d5b12b972d32ad12063)
REM
REM compiler GCC version 9.2.1 20190827 (Red Hat 9.2.1-1)
REM options -cpp -mtune=generic -march=x86-64 -g -O0 -fpre-include=/usr/include/finclude/math-vector-fortran.h
REM seed -1200879369 -312625344 252867503 -471379534 -1064211547 -2014267087 504324727 -397215905 -1922775059 1568450447 -479924853 -1293118716 516114511 -881800135 127793094 684881592 1187696816 1274302729 -30409311 -1858476814 963169517 852161913 1818010409 617654269 1752447507 986726480 -552593826 -900632773 -1188722000 -110489015 -199711030 -182419145 -1556038148
REM
CELL 1.54180  100.00000  100.00000  100.00000   90.00000   90.00000   90.00000
LATT -1
SFAC C  
C      1  0.5218990000000  0.5352970000000  0.4505280000000 1.0
C      1  0.4510350000000  0.5216660000000  0.5350220000000 1.0
C      1  0.5355300000000  0.4508030000000  0.5213910000000 1.0
C      1  0.4786520000000  0.5352970000000  0.5490070000000 1.0
C      1  0.5218990000000  0.4647880000000  0.5490070000000 1.0
C      1  0.4786520000000  0.4647880000000  0.4505270000000 1.0
C      1  0.5495150000000  0.5216660000000  0.4645130000000 1.0
C      1  0.4510360000000  0.4784190000000  0.4645130000000 1.0
C      1  0.5495150000000  0.4784190000000  0.5350220000000 1.0
C      1  0.4650210000000  0.4508030000000  0.4781440000000 1.0
C      1  0.5355300000000  0.5492820000000  0.4781440000000 1.0
C      1  0.4650210000000  0.5492820000000  0.5213910000000 1.0
C      1  0.5218990000000  0.4647880000000  0.4505270000000 1.0
C      1  0.4510350000000  0.4784190000000  0.5350220000000 1.0
C      1  0.5355300000000  0.5492820000000  0.5213910000000 1.0
C      1  0.4786520000000  0.4647880000000  0.5490070000000 1.0
C      1  0.5218990000000  0.5352970000000  0.5490070000000 1.0
C      1  0.4786520000000  0.5352970000000  0.4505280000000 1.0
C      1  0.5495150000000  0.4784190000000  0.4645130000000 1.0
C      1  0.4510360000000  0.5216660000000  0.4645130000000 1.0
C      1  0.5495150000000  0.5216660000000  0.5350220000000 1.0
C      1  0.4650210000000  0.5492820000000  0.4781440000000 1.0
C      1  0.5355300000000  0.4508030000000  0.4781440000000 1.0
C      1  0.4650210000000  0.4508030000000  0.5213910000000 1.0
C      1  0.4442020000000  0.5129230000000  0.4552660000000 1.0
C      1  0.4557740000000  0.4439690000000  0.5126480000000 1.0
C      1  0.5131560000000  0.4555410000000  0.4436940000000 1.0
C      1  0.5563490000000  0.5129230000000  0.5442680000000 1.0
C      1  0.4442020000000  0.4871610000000  0.5442680000000 1.0
C      1  0.5563480000000  0.4871610000000  0.4552660000000 1.0
C      1  0.5447760000000  0.4439690000000  0.4868860000000 1.0
C      1  0.4557740000000  0.5561150000000  0.4868860000000 1.0
C      1  0.5447760000000  0.5561160000000  0.5126480000000 1.0
C      1  0.4873940000000  0.4555410000000  0.5558400000000 1.0
C      1  0.5131560000000  0.5445440000000  0.5558400000000 1.0
C      1  0.4873940000000  0.5445440000000  0.4436940000000 1.0
C      1  0.4442020000000  0.4871610000000  0.4552660000000 1.0
C      1  0.4557740000000  0.5561160000000  0.5126480000000 1.0
C      1  0.5131560000000  0.5445440000000  0.4436940000000 1.0
C      1  0.5563490000000  0.4871610000000  0.5442680000000 1.0
C      1  0.4442020000000  0.5129230000000  0.5442680000000 1.0
C      1  0.5563480000000  0.5129230000000  0.4552660000000 1.0
C      1  0.5447760000000  0.5561160000000  0.4868860000000 1.0
C      1  0.4557740000000  0.4439690000000  0.4868860000000 1.0
C      1  0.5447760000000  0.4439690000000  0.5126480000000 1.0
C      1  0.4873940000000  0.5445440000000  0.5558400000000 1.0
C      1  0.5131560000000  0.4555410000000  0.5558400000000 1.0
C      1  0.4873940000000  0.4555410000000  0.4436940000000 1.0
C      1  0.5074160000000  0.5712070000000  0.5293330000000 1.0
C      1  0.5298410000000  0.5071830000000  0.5709320000000 1.0
C      1  0.5714400000000  0.5296090000000  0.5069080000000 1.0
C      1  0.4931340000000  0.5712070000000  0.4702010000000 1.0
C      1  0.5074160000000  0.4288780000000  0.4702010000000 1.0
C      1  0.4931340000000  0.4288780000000  0.5293330000000 1.0
C      1  0.4707090000000  0.5071830000000  0.4286030000000 1.0
C      1  0.5298410000000  0.4929010000000  0.4286030000000 1.0
C      1  0.4707090000000  0.4929010000000  0.5709320000000 1.0
C      1  0.4291110000000  0.5296090000000  0.4926260000000 1.0
C      1  0.5714400000000  0.4704760000000  0.4926260000000 1.0
C      1  0.4291110000000  0.4704760000000  0.5069080000000 1.0
C      1  0.5074160000000  0.4288780000000  0.5293330000000 1.0
C      1  0.5298410000000  0.4929010000000  0.5709320000000 1.0
C      1  0.5714400000000  0.4704760000000  0.5069080000000 1.0
C      1  0.4931340000000  0.4288780000000  0.4702010000000 1.0
C      1  0.5074160000000  0.5712070000000  0.4702010000000 1.0
C      1  0.4931340000000  0.5712070000000  0.5293330000000 1.0
C      1  0.4707090000000  0.4929010000000  0.4286030000000 1.0
C      1  0.5298410000000  0.5071830000000  0.4286030000000 1.0
C      1  0.4707090000000  0.5071830000000  0.5709320000000 1.0
C      1  0.4291110000000  0.4704760000000  0.4926260000000 1.0
C      1  0.5714400000000  0.5296090000000  0.4926260000000 1.0
C      1  0.4291110000000  0.5296090000000  0.5069080000000 1.0
C      1  0.4647630000000  0.5367830000000  0.5527870000000 1.0
C      1  0.5532950000000  0.4645300000000  0.5365080000000 1.0
C      1  0.5370160000000  0.5530620000000  0.4642550000000 1.0
C      1  0.5357880000000  0.5367830000000  0.4467480000000 1.0
C      1  0.4647630000000  0.4633020000000  0.4467480000000 1.0
C      1  0.5357880000000  0.4633020000000  0.5527870000000 1.0
C      1  0.4472560000000  0.4645300000000  0.4630260000000 1.0
C      1  0.5532950000000  0.5355550000000  0.4630260000000 1.0
C      1  0.4472560000000  0.5355550000000  0.5365080000000 1.0
C      1  0.4635340000000  0.5530620000000  0.5352800000000 1.0
C      1  0.5370160000000  0.4470230000000  0.5352800000000 1.0
C      1  0.4635340000000  0.4470230000000  0.4642550000000 1.0
C      1  0.4647630000000  0.4633020000000  0.5527870000000 1.0
C      1  0.5532950000000  0.5355550000000  0.5365080000000 1.0
C      1  0.5370160000000  0.4470230000000  0.4642550000000 1.0
C      1  0.5357880000000  0.4633020000000  0.4467480000000 1.0
C      1  0.4647630000000  0.5367830000000  0.4467480000000 1.0
C      1  0.5357880000000  0.5367830000000  0.5527870000000 1.0
C      1  0.4472560000000  0.5355550000000  0.4630270000000 1.0
C      1  0.5532950000000  0.4645300000000  0.4630260000000 1.0
C      1  0.4472550000000  0.4645300000000  0.5365080000000 1.0
C      1  0.4635340000000  0.4470230000000  0.5352800000000 1.0
C      1  0.5370160000000  0.5530620000000  0.5352800000000 1.0
C      1  0.4635350000000  0.5530620000000  0.4642550000000 1.0
C      1  0.4861350000000  0.4357720000000  0.5397330000000 1.0
C      1  0.5402410000000  0.4859020000000  0.4354970000000 1.0
C      1  0.4360050000000  0.5400080000000  0.4856270000000 1.0
C      1  0.5144160000000  0.4357720000000  0.4598020000000 1.0
C      1  0.4861350000000  0.5643130000000  0.4598020000000 1.0
C      1  0.5144160000000  0.5643130000000  0.5397320000000 1.0
C      1  0.4603100000000  0.4859020000000  0.5640370000000 1.0
C      1  0.5402410000000  0.5141830000000  0.5640370000000 1.0
C      1  0.4603100000000  0.5141830000000  0.4354970000000 1.0
C      1  0.5645450000000  0.5400080000000  0.5139080000000 1.0
C      1  0.4360050000000  0.4600770000000  0.5139080000000 1.0
C      1  0.5645450000000  0.4600770000000  0.4856270000000 1.0
C      1  0.4861350000000  0.5643130000000  0.5397320000000 1.0
C      1  0.5402410000000  0.5141830000000  0.4354970000000 1.0
C      1  0.4360050000000  0.4600770000000  0.4856270000000 1.0
C      1  0.5144160000000  0.5643130000000  0.4598020000000 1.0
C      1  0.4861350000000  0.4357720000000  0.4598020000000 1.0
C      1  0.5144160000000  0.4357720000000  0.5397330000000 1.0
C      1  0.4603100000000  0.5141830000000  0.5640370000000 1.0
C      1  0.5402410000000  0.4859020000000  0.5640370000000 1.0
C      1  0.4603100000000  0.4859020000000  0.4354970000000 1.0
C      1  0.5645460000000  0.4600770000000  0.5139080000000 1.0
C      1  0.4360050000000  0.5400080000000  0.5139080000000 1.0
C      1  0.5645450000000  0.5400080000000  0.4856270000000 1.0
C      1  0.5075460000000  0.5072250000000  0.4201120000000 1.0
C      1  0.4206200000000  0.5073140000000  0.5069500000000 1.0
C      1  0.5074580000000  0.4203870000000  0.5070380000000 1.0
C      1  0.4930040000000  0.5072250000000  0.5794220000000 1.0
C      1  0.5075460000000  0.4928590000000  0.5794220000000 1.0
C      1  0.4930040000000  0.4928590000000  0.4201120000000 1.0
C      1  0.5799300000000  0.5073140000000  0.4925840000000 1.0
C      1  0.4206200000000  0.4927710000000  0.4925840000000 1.0
C      1  0.5799300000000  0.4927710000000  0.5069500000000 1.0
C      1  0.4930920000000  0.4203870000000  0.4924960000000 1.0
C      1  0.5074580000000  0.5796980000000  0.4924960000000 1.0
C      1  0.4930920000000  0.5796980000000  0.5070380000000 1.0
C      1  0.5075460000000  0.4928590000000  0.4201120000000 1.0
C      1  0.4206200000000  0.4927710000000  0.5069500000000 1.0
C      1  0.5074580000000  0.5796980000000  0.5070380000000 1.0
C      1  0.4930040000000  0.4928590000000  0.5794220000000 1.0
C      1  0.5075460000000  0.5072250000000  0.5794220000000 1.0
C      1  0.4930040000000  0.5072250000000  0.4201120000000 1.0
C      1  0.5799300000000  0.4927710000000  0.4925840000000 1.0
C      1  0.4206200000000  0.5073140000000  0.4925840000000 1.0
C      1  0.5799300000000  0.5073140000000  0.5069500000000 1.0
C      1  0.4930920000000  0.5796980000000  0.4924960000000 1.0
C      1  0.5074580000000  0.4203870000000  0.4924960000000 1.0
C      1  0.4930920000000  0.4203870000000  0.5070380000000 1.0
C      1  0.5288570000000  0.4356850000000  0.5378800000000 1.0
C      1  0.5383880000000  0.5286240000000  0.4354100000000 1.0
C      1  0.4359180000000  0.5381550000000  0.5283490000000 1.0
C      1  0.4716940000000  0.4356860000000  0.4616550000000 1.0
C      1  0.5288570000000  0.5643990000000  0.4616550000000 1.0
C      1  0.4716940000000  0.5643990000000  0.5378800000000 1.0
C      1  0.4621630000000  0.5286240000000  0.5641240000000 1.0
C      1  0.5383880000000  0.4714610000000  0.5641240000000 1.0
C      1  0.4621630000000  0.4714610000000  0.4354100000000 1.0
C      1  0.5646320000000  0.5381550000000  0.4711860000000 1.0
C      1  0.4359180000000  0.4619300000000  0.4711860000000 1.0
C      1  0.5646320000000  0.4619300000000  0.5283490000000 1.0
C      1  0.5288570000000  0.5643990000000  0.5378800000000 1.0
C      1  0.5383880000000  0.4714610000000  0.4354100000000 1.0
C      1  0.4359180000000  0.4619300000000  0.5283490000000 1.0
C      1  0.4716940000000  0.5643990000000  0.4616550000000 1.0
C      1  0.5288570000000  0.4356850000000  0.4616550000000 1.0
C      1  0.4716940000000  0.4356850000000  0.5378800000000 1.0
C      1  0.4621630000000  0.4714610000000  0.5641240000000 1.0
C      1  0.5383880000000  0.5286240000000  0.5641240000000 1.0
C      1  0.4621630000000  0.5286240000000  0.4354100000000 1.0
C      1  0.5646320000000  0.4619300000000  0.4711860000000 1.0
C      1  0.4359180000000  0.5381550000000  0.4711860000000 1.0
C      1  0.5646320000000  0.5381550000000  0.5283490000000 1.0
C      1  0.5559220000000  0.4510350000000  0.5068720000000 1.0
C      1  0.5073800000000  0.5556890000000  0.4507590000000 1.0
C      1  0.4512670000000  0.5071470000000  0.5554140000000 1.0
C      1  0.4446290000000  0.4510350000000  0.4926620000000 1.0
C      1  0.5559220000000  0.5490500000000  0.4926620000000 1.0
C      1  0.4446290000000  0.5490500000000  0.5068720000000 1.0
C      1  0.4931700000000  0.5556890000000  0.5487750000000 1.0
C      1  0.5073800000000  0.4443960000000  0.5487750000000 1.0
C      1  0.4931700000000  0.4443960000000  0.4507590000000 1.0
C      1  0.5492830000000  0.5071470000000  0.4441210000000 1.0
C      1  0.4512670000000  0.4929380000000  0.4441210000000 1.0
C      1  0.5492830000000  0.4929370000000  0.5554140000000 1.0
C      1  0.5559220000000  0.5490500000000  0.5068720000000 1.0
C      1  0.5073800000000  0.4443960000000  0.4507590000000 1.0
C      1  0.4512670000000  0.4929370000000  0.5554140000000 1.0
C      1  0.4446290000000  0.5490500000000  0.4926620000000 1.0
C      1  0.5559220000000  0.4510350000000  0.4926620000000 1.0
C      1  0.4446290000000  0.4510350000000  0.5068720000000 1.0
C      1  0.4931700000000  0.4443960000000  0.5487750000000 1.0
C      1  0.5073800000000  0.5556890000000  0.5487750000000 1.0
C      1  0.4931700000000  0.5556890000000  0.4507600000000 1.0
C      1  0.5492830000000  0.4929370000000  0.4441210000000 1.0
C      1  0.4512670000000  0.5071470000000  0.4441210000000 1.0
C      1  0.5492830000000  0.5071470000000  0.5554140000000 1.0
C      1  0.4607330000000  0.5191890000000  0.5112310000000 1.0
C      1  0.5117380000000  0.4605000000000  0.5189140000000 1.0
C      1  0.5194220000000  0.5115060000000  0.4602250000000 1.0
C      1  0.5398180000000  0.5191890000000  0.4883040000000 1.0
C      1  0.4607330000000  0.4808960000000  0.4883040000000 1.0
C      1  0.5398180000000  0.4808960000000  0.5112310000000 1.0
C      1  0.4888120000000  0.4605000000000  0.4806210000000 1.0
C      1  0.5117390000000  0.5395850000000  0.4806210000000 1.0
C      1  0.4888120000000  0.5395850000000  0.5189140000000 1.0
C      1  0.4811290000000  0.5115050000000  0.5393100000000 1.0
C      1  0.5194220000000  0.4885790000000  0.5393100000000 1.0
C      1  0.4811290000000  0.4885790000000  0.4602250000000 1.0
C      1  0.4607330000000  0.4808960000000  0.5112310000000 1.0
C      1  0.5117390000000  0.5395850000000  0.5189140000000 1.0
C      1  0.5194220000000  0.4885790000000  0.4602250000000 1.0
C      1  0.5398180000000  0.4808960000000  0.4883040000000 1.0
C      1  0.4607330000000  0.5191890000000  0.4883040000000 1.0
C      1  0.5398180000000  0.5191890000000  0.5112310000000 1.0
C      1  0.4888120000000  0.5395850000000  0.4806210000000 1.0
C      1  0.5117380000000  0.4605000000000  0.4806210000000 1.0
C      1  0.4888120000000  0.4605000000000  0.5189140000000 1.0
C      1  0.4811290000000  0.4885790000000  0.5393100000000 1.0
C      1  0.5194220000000  0.5115050000000  0.5393100000000 1.0
C      1  0.4811290000000  0.5115060000000  0.4602250000000 1.0
C      1  0.4699390000000  0.4929760000000  0.5309950000000 1.0
C      1  0.5315030000000  0.4697070000000  0.4927010000000 1.0
C      1  0.4932090000000  0.5312700000000  0.4694310000000 1.0
C      1  0.5306110000000  0.4929760000000  0.4685390000000 1.0
C      1  0.4699390000000  0.5071080000000  0.4685390000000 1.0
C      1  0.5306110000000  0.5071080000000  0.5309950000000 1.0
C      1  0.4690470000000  0.4697070000000  0.5068330000000 1.0
C      1  0.5315030000000  0.5303780000000  0.5068330000000 1.0
C      1  0.4690470000000  0.5303780000000  0.4927010000000 1.0
C      1  0.5073410000000  0.5312700000000  0.5301030000000 1.0
C      1  0.4932090000000  0.4688140000000  0.5301030000000 1.0
C      1  0.5073410000000  0.4688140000000  0.4694310000000 1.0
C      1  0.4699390000000  0.5071080000000  0.5309950000000 1.0
C      1  0.5315030000000  0.5303780000000  0.4927010000000 1.0
C      1  0.4932090000000  0.4688140000000  0.4694310000000 1.0
C      1  0.5306110000000  0.5071080000000  0.4685390000000 1.0
C      1  0.4699390000000  0.4929760000000  0.4685390000000 1.0
C      1  0.5306110000000  0.4929760000000  0.5309950000000 1.0
C      1  0.4690470000000  0.5303780000000  0.5068330000000 1.0
C      1  0.5315030000000  0.4697070000000  0.5068330000000 1.0
C      1  0.4690470000000  0.4697070000000  0.4927010000000 1.0
C      1  0.5073410000000  0.4688140000000  0.5301030000000 1.0
C      1  0.4932090000000  0.5312700000000  0.5301030000000 1.0
C      1  0.5073410000000  0.5312700000000  0.4694310000000 1.0
C      1  0.4263150000000  0.4828960000000  0.5287910000000 1.0
C      1  0.5292990000000  0.4260820000000  0.4826200000000 1.0
C      1  0.4831280000000  0.5290660000000  0.4258070000000 1.0
C      1  0.5742350000000  0.4828960000000  0.4707440000000 1.0
C      1  0.4263150000000  0.5171890000000  0.4707440000000 1.0
C      1  0.5742360000000  0.5171890000000  0.5287910000000 1.0
C      1  0.4712520000000  0.4260820000000  0.5169140000000 1.0
C      1  0.5292990000000  0.5740030000000  0.5169140000000 1.0
C      1  0.4712520000000  0.5740030000000  0.4826200000000 1.0
C      1  0.5174220000000  0.5290660000000  0.5737270000000 1.0
C      1  0.4831280000000  0.4710190000000  0.5737280000000 1.0
C      1  0.5174220000000  0.4710190000000  0.4258070000000 1.0
C      1  0.4263150000000  0.5171890000000  0.5287910000000 1.0
C      1  0.5292990000000  0.5740030000000  0.4826200000000 1.0
C      1  0.4831280000000  0.4710190000000  0.4258070000000 1.0
C      1  0.5742350000000  0.5171890000000  0.4707440000000 1.0
C      1  0.4263150000000  0.4828960000000  0.4707440000000 1.0
C      1  0.5742360000000  0.4828960000000  0.5287910000000 1.0
C      1  0.4712520000000  0.5740030000000  0.5169140000000 1.0
C      1  0.5292990000000  0.4260820000000  0.5169140000000 1.0
C      1  0.4712520000000  0.4260820000000  0.4826200000000 1.0
C      1  0.5174220000000  0.4710190000000  0.5737280000000 1.0
C      1  0.4831280000000  0.5290660000000  0.5737270000000 1.0
C      1  0.5174220000000  0.5290660000000  0.4258070000000 1.0
C      1  0.4844660000000  0.4744020000000  0.5401730000000 1.0
C      1  0.5406810000000  0.4842330000000  0.4741270000000 1.0
C      1  0.4746350000000  0.5404480000000  0.4839580000000 1.0
C      1  0.5160840000000  0.4744020000000  0.4593610000000 1.0
C      1  0.4844660000000  0.5256830000000  0.4593610000000 1.0
C      1  0.5160840000000  0.5256830000000  0.5401730000000 1.0
C      1  0.4598690000000  0.4842330000000  0.5254080000000 1.0
C      1  0.5406810000000  0.5158510000000  0.5254080000000 1.0
C      1  0.4598690000000  0.5158510000000  0.4741270000000 1.0
C      1  0.5259160000000  0.5404480000000  0.5155760000000 1.0
C      1  0.4746350000000  0.4596370000000  0.5155760000000 1.0
C      1  0.5259160000000  0.4596370000000  0.4839580000000 1.0
C      1  0.4844660000000  0.5256830000000  0.5401730000000 1.0
C      1  0.5406810000000  0.5158510000000  0.4741270000000 1.0
C      1  0.4746350000000  0.4596370000000  0.4839580000000 1.0
C      1  0.5160840000000  0.5256830000000  0.4593610000000 1.0
C      1  0.4844660000000  0.4744020000000  0.4593610000000 1.0
C      1  0.5160840000000  0.4744020000000  0.5401730000000 1.0
C      1  0.4598690000000  0.5158510000000  0.5254080000000 1.0
C      1  0.5406810000000  0.4842330000000  0.5254080000000 1.0
C      1  0.4598690000000  0.4842330000000  0.4741270000000 1.0
C      1  0.5259160000000  0.4596370000000  0.5155760000000 1.0
C      1  0.4746350000000  0.5404480000000  0.5155760000000 1.0
C      1  0.5259160000000  0.5404480000000  0.4839580000000 1.0
C      1  0.5759540000000  0.4820210000000  0.4851460000000 1.0
C      1  0.4856540000000  0.5757220000000  0.4817450000000 1.0
C      1  0.4822530000000  0.4854220000000  0.5754460000000 1.0
C      1  0.4245960000000  0.4820210000000  0.5143880000000 1.0
C      1  0.5759540000000  0.5180640000000  0.5143880000000 1.0
C      1  0.4245960000000  0.5180640000000  0.4851460000000 1.0
C      1  0.5148960000000  0.5757220000000  0.5177890000000 1.0
C      1  0.4856540000000  0.4243630000000  0.5177890000000 1.0
C      1  0.5148960000000  0.4243630000000  0.4817450000000 1.0
C      1  0.5182970000000  0.4854220000000  0.4240880000000 1.0
C      1  0.4822530000000  0.5146630000000  0.4240880000000 1.0
C      1  0.5182970000000  0.5146630000000  0.5754460000000 1.0
C      1  0.5759540000000  0.5180640000000  0.4851460000000 1.0
C      1  0.4856540000000  0.4243630000000  0.4817450000000 1.0
C      1  0.4822530000000  0.5146630000000  0.5754460000000 1.0
C      1  0.4245960000000  0.5180640000000  0.5143880000000 1.0
C      1  0.5759540000000  0.4820210000000  0.5143880000000 1.0
C      1  0.4245960000000  0.4820210000000  0.4851460000000 1.0
C      1  0.5148960000000  0.4243630000000  0.5177890000000 1.0
C      1  0.4856540000000  0.5757220000000  0.5177890000000 1.0
C      1  0.5148960000000  0.5757220000000  0.4817450000000 1.0
C      1  0.5182970000000  0.5146630000000  0.4240880000000 1.0
C      1  0.4822530000000  0.4854220000000  0.4240880000000 1.0
C      1  0.5182970000000  0.4854220000000  0.5754460000000 1.0
C      1  0.5376620000000  0.4329300000000  0.5068680000000 1.0
C      1  0.5073760000000  0.5374290000000  0.4326550000000 1.0
C      1  0.4331620000000  0.5071430000000  0.5371540000000 1.0
C      1  0.4628890000000  0.4329300000000  0.4926670000000 1.0
C      1  0.5376620000000  0.5671550000000  0.4926670000000 1.0
C      1  0.4628890000000  0.5671550000000  0.5068680000000 1.0
C      1  0.4931750000000  0.5374290000000  0.5668800000000 1.0
C      1  0.5073760000000  0.4626560000000  0.5668800000000 1.0
C      1  0.4931750000000  0.4626560000000  0.4326540000000 1.0
C      1  0.5673880000000  0.5071430000000  0.4623810000000 1.0
C      1  0.4331630000000  0.4929420000000  0.4623810000000 1.0
C      1  0.5673880000000  0.4929420000000  0.5371540000000 1.0
C      1  0.5376620000000  0.5671550000000  0.5068680000000 1.0
C      1  0.5073760000000  0.4626560000000  0.4326540000000 1.0
C      1  0.4331620000000  0.4929420000000  0.5371540000000 1.0
C      1  0.4628890000000  0.5671550000000  0.4926670000000 1.0
C      1  0.5376620000000  0.4329300000000  0.4926670000000 1.0
C      1  0.4628890000000  0.4329300000000  0.5068680000000 1.0
C      1  0.4931750000000  0.4626560000000  0.5668800000000 1.0
C      1  0.5073760000000  0.5374290000000  0.5668800000000 1.0
C      1  0.4931750000000  0.5374290000000  0.4326550000000 1.0
C      1  0.5673880000000  0.4929420000000  0.4623810000000 1.0
C      1  0.4331630000000  0.5071430000000  0.4623810000000 1.0
C      1  0.5673880000000  0.5071430000000  0.5371540000000 1.0
C      1  0.5303530000000  0.5337380000000  0.5742830000000 1.0
C      1  0.5747910000000  0.5301200000000  0.5334630000000 1.0
C      1  0.5339710000000  0.5745580000000  0.5298450000000 1.0
C      1  0.4701970000000  0.5337380000000  0.4252510000000 1.0
C      1  0.5303530000000  0.4663470000000  0.4252510000000 1.0
C      1  0.4701970000000  0.4663470000000  0.5742830000000 1.0
C      1  0.4257590000000  0.5301200000000  0.4660710000000 1.0
C      1  0.5747910000000  0.4699640000000  0.4660710000000 1.0
C      1  0.4257590000000  0.4699640000000  0.5334630000000 1.0
C      1  0.4665790000000  0.5745580000000  0.4696890000000 1.0
C      1  0.5339710000000  0.4255270000000  0.4696890000000 1.0
C      1  0.4665790000000  0.4255270000000  0.5298450000000 1.0
C      1  0.5303530000000  0.4663470000000  0.5742830000000 1.0
C      1  0.5747910000000  0.4699640000000  0.5334630000000 1.0
C      1  0.5339710000000  0.4255270000000  0.5298450000000 1.0
C      1  0.4701970000000  0.4663470000000  0.4252510000000 1.0
C      1  0.5303530000000  0.5337380000000  0.4252510000000 1.0
C      1  0.4701970000000  0.5337380000000  0.5742830000000 1.0
C      1  0.4257590000000  0.4699640000000  0.4660710000000 1.0
C      1  0.5747910000000  0.5301200000000  0.4660710000000 1.0
C      1  0.4257590000000  0.5301200000000  0.5334630000000 1.0
C      1  0.4665790000000  0.4255270000000  0.4696890000000 1.0
C      1  0.5339710000000  0.5745580000000  0.4696890000000 1.0
C      1  0.4665790000000  0.5745580000000  0.5298450000000 1.0
C      1  0.4555890000000  0.4870000000000  0.4997670000000 1.0
C      1  0.5002750000000  0.4553560000000  0.5128090000000 1.0
C      1  0.5002750000000  0.5447290000000  0.5128090000000 1.0
C      1  0.5002750000000  0.5447280000000  0.4867250000000 1.0
C      1  0.4872340000000  0.5000420000000  0.5444530000000 1.0
C      1  0.5133170000000  0.5000420000000  0.4550810000000 1.0
C      1  0.5449610000000  0.4870010000000  0.4997670000000 1.0
C      1  0.4555890000000  0.5130840000000  0.4997670000000 1.0
C      1  0.5449610000000  0.5130840000000  0.4997670000000 1.0
C      1  0.5002750000000  0.4553560000000  0.4867260000000 1.0
C      1  0.4872330000000  0.5000420000000  0.4550810000000 1.0
C      1  0.5133170000000  0.5000420000000  0.5444530000000 1.0
C      1  0.4569530000000  0.5433650000000  0.5430900000000 1.0
C      1  0.5435980000000  0.5433650000000  0.4564450000000 1.0
C      1  0.5435980000000  0.4567200000000  0.5430900000000 1.0
C      1  0.4569530000000  0.4567200000000  0.5430900000000 1.0
C      1  0.5435980000000  0.4567200000000  0.4564450000000 1.0
C      1  0.4569530000000  0.5433650000000  0.4564450000000 1.0
C      1  0.4569530000000  0.4567200000000  0.4564450000000 1.0
C      1  0.5435980000000  0.5433650000000  0.5430900000000 1.0
END
