TITL C-1892075-7045-43 1.69060569690029e-06 1000000 -3016.09798332472 0 0 420 (Td) n - 1
REM
REM in /nfs/bkarasulu/CARBON/AIRSS/Generating-Clusters/GAP-ML-2020/Higher-Symm/Selected-Sizes/TryA-Only_Ih-Symm/Larger-Clusters
REM
REM
REM
REM
REM
REM ./C.cell (2cf5181f0f1d4d5b12b972d32ad12063)
REM
REM compiler GCC version 9.2.1 20190827 (Red Hat 9.2.1-1)
REM options -cpp -mtune=generic -march=x86-64 -g -O0 -fpre-include=/usr/include/finclude/math-vector-fortran.h
REM seed 225470761 1183583551 1016202111 147362119 -2077615683 1841170546 -898630128 251304381 -799270890 1999853778 1881854973 939626261 -264375328 526822970 1870897317 527718756 -79014758 327137237 -347800294 -35559655 -156422604 -1467889797 1465788197 -2101744221 -241286347 1686346720 39311323 -1848520083 -1684032073 2080155705 1541658716 913469097 -1255824489
REM
CELL 1.54180  100.00000  100.00000  100.00000   90.00000   90.00000   90.00000
LATT -1
SFAC C  
C      1  0.5489750000000  0.4994300000000  0.4409770000000 1.0
C      1  0.4994300000000  0.4409770000000  0.5489750000000 1.0
C      1  0.4409770000000  0.5489750000000  0.4994300000000 1.0
C      1  0.4510250000000  0.4994300000000  0.5590230000000 1.0
C      1  0.4510250000000  0.5005700000000  0.4409770000000 1.0
C      1  0.5489750000000  0.5005700000000  0.5590230000000 1.0
C      1  0.5005700000000  0.4409770000000  0.4510250000000 1.0
C      1  0.5005700000000  0.5590230000000  0.5489750000000 1.0
C      1  0.4994300000000  0.5590230000000  0.4510250000000 1.0
C      1  0.5590230000000  0.5489750000000  0.5005700000000 1.0
C      1  0.5590230000000  0.4510250000000  0.4994300000000 1.0
C      1  0.4409770000000  0.4510250000000  0.5005700000000 1.0
C      1  0.4409770000000  0.4994300000000  0.5489750000000 1.0
C      1  0.5489750000000  0.4409770000000  0.4994300000000 1.0
C      1  0.4994300000000  0.5489750000000  0.4409770000000 1.0
C      1  0.5590230000000  0.4994300000000  0.4510250000000 1.0
C      1  0.4409770000000  0.5005700000000  0.4510250000000 1.0
C      1  0.5590230000000  0.5005700000000  0.5489750000000 1.0
C      1  0.4510250000000  0.4409770000000  0.5005700000000 1.0
C      1  0.5489750000000  0.5590230000000  0.5005700000000 1.0
C      1  0.4510250000000  0.5590230000000  0.4994300000000 1.0
C      1  0.5005700000000  0.5489750000000  0.5590230000000 1.0
C      1  0.4994300000000  0.4510250000000  0.5590230000000 1.0
C      1  0.5005700000000  0.4510250000000  0.4409770000000 1.0
C      1  0.5317800000000  0.5220100000000  0.4295890000000 1.0
C      1  0.5220100000000  0.4295890000000  0.5317800000000 1.0
C      1  0.4295890000000  0.5317800000000  0.5220100000000 1.0
C      1  0.4682200000000  0.5220100000000  0.5704110000000 1.0
C      1  0.4682200000000  0.4779900000000  0.4295890000000 1.0
C      1  0.5317800000000  0.4779900000000  0.5704110000000 1.0
C      1  0.4779900000000  0.4295890000000  0.4682200000000 1.0
C      1  0.4779900000000  0.5704110000000  0.5317800000000 1.0
C      1  0.5220100000000  0.5704110000000  0.4682200000000 1.0
C      1  0.5704110000000  0.5317800000000  0.4779900000000 1.0
C      1  0.5704110000000  0.4682200000000  0.5220100000000 1.0
C      1  0.4295890000000  0.4682200000000  0.4779900000000 1.0
C      1  0.4295890000000  0.5220100000000  0.5317800000000 1.0
C      1  0.5317800000000  0.4295890000000  0.5220100000000 1.0
C      1  0.5220100000000  0.5317800000000  0.4295890000000 1.0
C      1  0.5704110000000  0.5220100000000  0.4682200000000 1.0
C      1  0.4295890000000  0.4779900000000  0.4682200000000 1.0
C      1  0.5704110000000  0.4779900000000  0.5317800000000 1.0
C      1  0.4682200000000  0.4295890000000  0.4779900000000 1.0
C      1  0.5317800000000  0.5704110000000  0.4779900000000 1.0
C      1  0.4682200000000  0.5704110000000  0.5220100000000 1.0
C      1  0.4779900000000  0.5317800000000  0.5704110000000 1.0
C      1  0.5220100000000  0.4682200000000  0.5704110000000 1.0
C      1  0.4779900000000  0.4682200000000  0.4295890000000 1.0
C      1  0.4509440000000  0.4895550000000  0.5000460000000 1.0
C      1  0.4895550000000  0.5000460000000  0.4509440000000 1.0
C      1  0.5000460000000  0.4509440000000  0.4895550000000 1.0
C      1  0.5490560000000  0.4895550000000  0.4999540000000 1.0
C      1  0.5490560000000  0.5104450000000  0.5000460000000 1.0
C      1  0.4509440000000  0.5104450000000  0.4999540000000 1.0
C      1  0.5104450000000  0.5000460000000  0.5490560000000 1.0
C      1  0.5104450000000  0.4999540000000  0.4509440000000 1.0
C      1  0.4895550000000  0.4999540000000  0.5490560000000 1.0
C      1  0.4999540000000  0.4509440000000  0.5104450000000 1.0
C      1  0.4999540000000  0.5490560000000  0.4895550000000 1.0
C      1  0.5000460000000  0.5490560000000  0.5104450000000 1.0
C      1  0.5000460000000  0.4895550000000  0.4509440000000 1.0
C      1  0.4509440000000  0.5000460000000  0.4895550000000 1.0
C      1  0.4895550000000  0.4509440000000  0.5000460000000 1.0
C      1  0.4999540000000  0.4895550000000  0.5490560000000 1.0
C      1  0.5000460000000  0.5104450000000  0.5490560000000 1.0
C      1  0.4999540000000  0.5104450000000  0.4509440000000 1.0
C      1  0.5490560000000  0.5000460000000  0.5104450000000 1.0
C      1  0.4509440000000  0.4999540000000  0.5104450000000 1.0
C      1  0.5490560000000  0.4999540000000  0.4895550000000 1.0
C      1  0.5104450000000  0.4509440000000  0.4999540000000 1.0
C      1  0.4895550000000  0.5490560000000  0.4999540000000 1.0
C      1  0.5104450000000  0.5490560000000  0.5000460000000 1.0
C      1  0.4824820000000  0.5782710000000  0.4923350000000 1.0
C      1  0.5782710000000  0.4923350000000  0.4824820000000 1.0
C      1  0.4923350000000  0.4824820000000  0.5782710000000 1.0
C      1  0.5175180000000  0.5782710000000  0.5076650000000 1.0
C      1  0.5175180000000  0.4217290000000  0.4923350000000 1.0
C      1  0.4824820000000  0.4217290000000  0.5076650000000 1.0
C      1  0.4217290000000  0.4923350000000  0.5175180000000 1.0
C      1  0.4217290000000  0.5076650000000  0.4824820000000 1.0
C      1  0.5782710000000  0.5076650000000  0.5175180000000 1.0
C      1  0.5076650000000  0.4824820000000  0.4217290000000 1.0
C      1  0.5076650000000  0.5175180000000  0.5782710000000 1.0
C      1  0.4923350000000  0.5175180000000  0.4217290000000 1.0
C      1  0.4923350000000  0.5782710000000  0.4824820000000 1.0
C      1  0.4824820000000  0.4923350000000  0.5782710000000 1.0
C      1  0.5782710000000  0.4824820000000  0.4923350000000 1.0
C      1  0.5076650000000  0.5782710000000  0.5175180000000 1.0
C      1  0.4923350000000  0.4217290000000  0.5175180000000 1.0
C      1  0.5076650000000  0.4217290000000  0.4824820000000 1.0
C      1  0.5175180000000  0.4923350000000  0.4217290000000 1.0
C      1  0.4824820000000  0.5076650000000  0.4217290000000 1.0
C      1  0.5175180000000  0.5076650000000  0.5782710000000 1.0
C      1  0.4217290000000  0.4824820000000  0.5076650000000 1.0
C      1  0.5782710000000  0.5175180000000  0.5076650000000 1.0
C      1  0.4217290000000  0.5175180000000  0.4923350000000 1.0
C      1  0.4392880000000  0.4622970000000  0.5084870000000 1.0
C      1  0.4622970000000  0.5084870000000  0.4392880000000 1.0
C      1  0.5084870000000  0.4392880000000  0.4622970000000 1.0
C      1  0.5607120000000  0.4622970000000  0.4915130000000 1.0
C      1  0.5607120000000  0.5377030000000  0.5084870000000 1.0
C      1  0.4392880000000  0.5377030000000  0.4915130000000 1.0
C      1  0.5377030000000  0.5084870000000  0.5607120000000 1.0
C      1  0.5377030000000  0.4915130000000  0.4392880000000 1.0
C      1  0.4622970000000  0.4915130000000  0.5607120000000 1.0
C      1  0.4915130000000  0.4392880000000  0.5377030000000 1.0
C      1  0.4915130000000  0.5607120000000  0.4622970000000 1.0
C      1  0.5084870000000  0.5607120000000  0.5377030000000 1.0
C      1  0.5084870000000  0.4622970000000  0.4392880000000 1.0
C      1  0.4392880000000  0.5084870000000  0.4622970000000 1.0
C      1  0.4622970000000  0.4392880000000  0.5084870000000 1.0
C      1  0.4915130000000  0.4622970000000  0.5607120000000 1.0
C      1  0.5084870000000  0.5377030000000  0.5607120000000 1.0
C      1  0.4915130000000  0.5377030000000  0.4392880000000 1.0
C      1  0.5607120000000  0.5084870000000  0.5377030000000 1.0
C      1  0.4392880000000  0.4915130000000  0.5377030000000 1.0
C      1  0.5607120000000  0.4915130000000  0.4622970000000 1.0
C      1  0.5377030000000  0.4392880000000  0.4915130000000 1.0
C      1  0.4622970000000  0.5607120000000  0.4915130000000 1.0
C      1  0.5377030000000  0.5607120000000  0.5084870000000 1.0
C      1  0.5224340000000  0.4999170000000  0.4887220000000 1.0
C      1  0.4999170000000  0.4887220000000  0.5224340000000 1.0
C      1  0.4887220000000  0.5224340000000  0.4999170000000 1.0
C      1  0.4775660000000  0.4999170000000  0.5112780000000 1.0
C      1  0.4775660000000  0.5000830000000  0.4887220000000 1.0
C      1  0.5224340000000  0.5000830000000  0.5112780000000 1.0
C      1  0.5000830000000  0.4887220000000  0.4775660000000 1.0
C      1  0.5000830000000  0.5112780000000  0.5224340000000 1.0
C      1  0.4999170000000  0.5112780000000  0.4775660000000 1.0
C      1  0.5112780000000  0.5224340000000  0.5000830000000 1.0
C      1  0.5112780000000  0.4775660000000  0.4999170000000 1.0
C      1  0.4887220000000  0.4775660000000  0.5000830000000 1.0
C      1  0.4887220000000  0.4999170000000  0.5224340000000 1.0
C      1  0.5224340000000  0.4887220000000  0.4999170000000 1.0
C      1  0.4999170000000  0.5224340000000  0.4887220000000 1.0
C      1  0.5112780000000  0.4999170000000  0.4775660000000 1.0
C      1  0.4887220000000  0.5000830000000  0.4775660000000 1.0
C      1  0.5112780000000  0.5000830000000  0.5224340000000 1.0
C      1  0.4775660000000  0.4887220000000  0.5000830000000 1.0
C      1  0.5224340000000  0.5112780000000  0.5000830000000 1.0
C      1  0.4775660000000  0.5112780000000  0.4999170000000 1.0
C      1  0.5000830000000  0.5224340000000  0.5112780000000 1.0
C      1  0.4999170000000  0.4775660000000  0.5112780000000 1.0
C      1  0.5000830000000  0.4775660000000  0.4887220000000 1.0
C      1  0.5231620000000  0.5446670000000  0.4660920000000 1.0
C      1  0.5446670000000  0.4660920000000  0.5231620000000 1.0
C      1  0.4660920000000  0.5231620000000  0.5446670000000 1.0
C      1  0.4768380000000  0.5446670000000  0.5339080000000 1.0
C      1  0.4768380000000  0.4553330000000  0.4660920000000 1.0
C      1  0.5231620000000  0.4553330000000  0.5339080000000 1.0
C      1  0.4553330000000  0.4660920000000  0.4768380000000 1.0
C      1  0.4553330000000  0.5339080000000  0.5231620000000 1.0
C      1  0.5446670000000  0.5339080000000  0.4768380000000 1.0
C      1  0.5339080000000  0.5231620000000  0.4553330000000 1.0
C      1  0.5339080000000  0.4768380000000  0.5446670000000 1.0
C      1  0.4660920000000  0.4768380000000  0.4553330000000 1.0
C      1  0.4660920000000  0.5446670000000  0.5231620000000 1.0
C      1  0.5231620000000  0.4660920000000  0.5446670000000 1.0
C      1  0.5446670000000  0.5231620000000  0.4660920000000 1.0
C      1  0.5339080000000  0.5446670000000  0.4768380000000 1.0
C      1  0.4660920000000  0.4553330000000  0.4768380000000 1.0
C      1  0.5339080000000  0.4553330000000  0.5231620000000 1.0
C      1  0.4768380000000  0.4660920000000  0.4553330000000 1.0
C      1  0.5231620000000  0.5339080000000  0.4553330000000 1.0
C      1  0.4768380000000  0.5339080000000  0.5446670000000 1.0
C      1  0.4553330000000  0.5231620000000  0.5339080000000 1.0
C      1  0.5446670000000  0.4768380000000  0.5339080000000 1.0
C      1  0.4553330000000  0.4768380000000  0.4660920000000 1.0
C      1  0.5287050000000  0.4240080000000  0.5097210000000 1.0
C      1  0.4240080000000  0.5097210000000  0.5287050000000 1.0
C      1  0.5097210000000  0.5287050000000  0.4240080000000 1.0
C      1  0.4712950000000  0.4240080000000  0.4902790000000 1.0
C      1  0.4712950000000  0.5759920000000  0.5097210000000 1.0
C      1  0.5287050000000  0.5759920000000  0.4902790000000 1.0
C      1  0.5759920000000  0.5097210000000  0.4712950000000 1.0
C      1  0.5759920000000  0.4902790000000  0.5287050000000 1.0
C      1  0.4240080000000  0.4902790000000  0.4712950000000 1.0
C      1  0.4902790000000  0.5287050000000  0.5759920000000 1.0
C      1  0.4902790000000  0.4712950000000  0.4240080000000 1.0
C      1  0.5097210000000  0.4712950000000  0.5759920000000 1.0
C      1  0.5097210000000  0.4240080000000  0.5287050000000 1.0
C      1  0.5287050000000  0.5097210000000  0.4240080000000 1.0
C      1  0.4240080000000  0.5287050000000  0.5097210000000 1.0
C      1  0.4902790000000  0.4240080000000  0.4712950000000 1.0
C      1  0.5097210000000  0.5759920000000  0.4712950000000 1.0
C      1  0.4902790000000  0.5759920000000  0.5287050000000 1.0
C      1  0.4712950000000  0.5097210000000  0.5759920000000 1.0
C      1  0.5287050000000  0.4902790000000  0.5759920000000 1.0
C      1  0.4712950000000  0.4902790000000  0.4240080000000 1.0
C      1  0.5759920000000  0.5287050000000  0.4902790000000 1.0
C      1  0.4240080000000  0.4712950000000  0.4902790000000 1.0
C      1  0.5759920000000  0.4712950000000  0.5097210000000 1.0
C      1  0.4830420000000  0.5506220000000  0.4673060000000 1.0
C      1  0.5506220000000  0.4673060000000  0.4830420000000 1.0
C      1  0.4673060000000  0.4830420000000  0.5506220000000 1.0
C      1  0.5169580000000  0.5506220000000  0.5326940000000 1.0
C      1  0.5169580000000  0.4493780000000  0.4673060000000 1.0
C      1  0.4830420000000  0.4493780000000  0.5326940000000 1.0
C      1  0.4493780000000  0.4673060000000  0.5169580000000 1.0
C      1  0.4493780000000  0.5326940000000  0.4830420000000 1.0
C      1  0.5506220000000  0.5326940000000  0.5169580000000 1.0
C      1  0.5326940000000  0.4830420000000  0.4493780000000 1.0
C      1  0.5326940000000  0.5169580000000  0.5506220000000 1.0
C      1  0.4673060000000  0.5169580000000  0.4493780000000 1.0
C      1  0.4673060000000  0.5506220000000  0.4830420000000 1.0
C      1  0.4830420000000  0.4673060000000  0.5506220000000 1.0
C      1  0.5506220000000  0.4830420000000  0.4673060000000 1.0
C      1  0.5326940000000  0.5506220000000  0.5169580000000 1.0
C      1  0.4673060000000  0.4493780000000  0.5169580000000 1.0
C      1  0.5326940000000  0.4493780000000  0.4830420000000 1.0
C      1  0.5169580000000  0.4673060000000  0.4493780000000 1.0
C      1  0.4830420000000  0.5326940000000  0.4493780000000 1.0
C      1  0.5169580000000  0.5326940000000  0.5506220000000 1.0
C      1  0.4493780000000  0.4830420000000  0.5326940000000 1.0
C      1  0.5506220000000  0.5169580000000  0.5326940000000 1.0
C      1  0.4493780000000  0.5169580000000  0.4673060000000 1.0
C      1  0.4699670000000  0.4959690000000  0.5715530000000 1.0
C      1  0.4959690000000  0.5715530000000  0.4699670000000 1.0
C      1  0.5715530000000  0.4699670000000  0.4959690000000 1.0
C      1  0.5300330000000  0.4959690000000  0.4284470000000 1.0
C      1  0.5300330000000  0.5040310000000  0.5715530000000 1.0
C      1  0.4699670000000  0.5040310000000  0.4284470000000 1.0
C      1  0.5040310000000  0.5715530000000  0.5300330000000 1.0
C      1  0.5040310000000  0.4284470000000  0.4699670000000 1.0
C      1  0.4959690000000  0.4284470000000  0.5300330000000 1.0
C      1  0.4284470000000  0.4699670000000  0.5040310000000 1.0
C      1  0.4284470000000  0.5300330000000  0.4959690000000 1.0
C      1  0.5715530000000  0.5300330000000  0.5040310000000 1.0
C      1  0.5715530000000  0.4959690000000  0.4699670000000 1.0
C      1  0.4699670000000  0.5715530000000  0.4959690000000 1.0
C      1  0.4959690000000  0.4699670000000  0.5715530000000 1.0
C      1  0.4284470000000  0.4959690000000  0.5300330000000 1.0
C      1  0.5715530000000  0.5040310000000  0.5300330000000 1.0
C      1  0.4284470000000  0.5040310000000  0.4699670000000 1.0
C      1  0.5300330000000  0.5715530000000  0.5040310000000 1.0
C      1  0.4699670000000  0.4284470000000  0.5040310000000 1.0
C      1  0.5300330000000  0.4284470000000  0.4959690000000 1.0
C      1  0.5040310000000  0.4699670000000  0.4284470000000 1.0
C      1  0.4959690000000  0.5300330000000  0.4284470000000 1.0
C      1  0.5040310000000  0.5300330000000  0.5715530000000 1.0
C      1  0.5001240000000  0.5187560000000  0.5368050000000 1.0
C      1  0.5187560000000  0.5368050000000  0.5001240000000 1.0
C      1  0.5368050000000  0.5001240000000  0.5187560000000 1.0
C      1  0.4998760000000  0.5187560000000  0.4631950000000 1.0
C      1  0.4998760000000  0.4812440000000  0.5368050000000 1.0
C      1  0.5001240000000  0.4812440000000  0.4631950000000 1.0
C      1  0.4812440000000  0.5368050000000  0.4998760000000 1.0
C      1  0.4812440000000  0.4631950000000  0.5001240000000 1.0
C      1  0.5187560000000  0.4631950000000  0.4998760000000 1.0
C      1  0.4631950000000  0.5001240000000  0.4812440000000 1.0
C      1  0.4631950000000  0.4998760000000  0.5187560000000 1.0
C      1  0.5368050000000  0.4998760000000  0.4812440000000 1.0
C      1  0.5368050000000  0.5187560000000  0.5001240000000 1.0
C      1  0.5001240000000  0.5368050000000  0.5187560000000 1.0
C      1  0.5187560000000  0.5001240000000  0.5368050000000 1.0
C      1  0.4631950000000  0.5187560000000  0.4998760000000 1.0
C      1  0.5368050000000  0.4812440000000  0.4998760000000 1.0
C      1  0.4631950000000  0.4812440000000  0.5001240000000 1.0
C      1  0.4998760000000  0.5368050000000  0.4812440000000 1.0
C      1  0.5001240000000  0.4631950000000  0.4812440000000 1.0
C      1  0.4998760000000  0.4631950000000  0.5187560000000 1.0
C      1  0.4812440000000  0.5001240000000  0.4631950000000 1.0
C      1  0.5187560000000  0.4998760000000  0.4631950000000 1.0
C      1  0.4812440000000  0.4998760000000  0.5368050000000 1.0
C      1  0.5133610000000  0.4386520000000  0.5512990000000 1.0
C      1  0.4386520000000  0.5512990000000  0.5133610000000 1.0
C      1  0.5512990000000  0.5133610000000  0.4386520000000 1.0
C      1  0.4866390000000  0.4386520000000  0.4487010000000 1.0
C      1  0.4866390000000  0.5613480000000  0.5512990000000 1.0
C      1  0.5133610000000  0.5613480000000  0.4487010000000 1.0
C      1  0.5613480000000  0.5512990000000  0.4866390000000 1.0
C      1  0.5613480000000  0.4487010000000  0.5133610000000 1.0
C      1  0.4386520000000  0.4487010000000  0.4866390000000 1.0
C      1  0.4487010000000  0.5133610000000  0.5613480000000 1.0
C      1  0.4487010000000  0.4866390000000  0.4386520000000 1.0
C      1  0.5512990000000  0.4866390000000  0.5613480000000 1.0
C      1  0.5512990000000  0.4386520000000  0.5133610000000 1.0
C      1  0.5133610000000  0.5512990000000  0.4386520000000 1.0
C      1  0.4386520000000  0.5133610000000  0.5512990000000 1.0
C      1  0.4487010000000  0.4386520000000  0.4866390000000 1.0
C      1  0.5512990000000  0.5613480000000  0.4866390000000 1.0
C      1  0.4487010000000  0.5613480000000  0.5133610000000 1.0
C      1  0.4866390000000  0.5512990000000  0.5613480000000 1.0
C      1  0.5133610000000  0.4487010000000  0.5613480000000 1.0
C      1  0.4866390000000  0.4487010000000  0.4386520000000 1.0
C      1  0.5613480000000  0.5133610000000  0.4487010000000 1.0
C      1  0.4386520000000  0.4866390000000  0.4487010000000 1.0
C      1  0.5613480000000  0.4866390000000  0.5512990000000 1.0
C      1  0.5259670000000  0.4859090000000  0.4630750000000 1.0
C      1  0.4859090000000  0.4630750000000  0.5259670000000 1.0
C      1  0.4630750000000  0.5259670000000  0.4859090000000 1.0
C      1  0.4740330000000  0.4859090000000  0.5369250000000 1.0
C      1  0.4740330000000  0.5140910000000  0.4630750000000 1.0
C      1  0.5259670000000  0.5140910000000  0.5369250000000 1.0
C      1  0.5140910000000  0.4630750000000  0.4740330000000 1.0
C      1  0.5140910000000  0.5369250000000  0.5259670000000 1.0
C      1  0.4859090000000  0.5369250000000  0.4740330000000 1.0
C      1  0.5369250000000  0.5259670000000  0.5140910000000 1.0
C      1  0.5369250000000  0.4740330000000  0.4859090000000 1.0
C      1  0.4630750000000  0.4740330000000  0.5140910000000 1.0
C      1  0.4630750000000  0.4859090000000  0.5259670000000 1.0
C      1  0.5259670000000  0.4630750000000  0.4859090000000 1.0
C      1  0.4859090000000  0.5259670000000  0.4630750000000 1.0
C      1  0.5369250000000  0.4859090000000  0.4740330000000 1.0
C      1  0.4630750000000  0.5140910000000  0.4740330000000 1.0
C      1  0.5369250000000  0.5140910000000  0.5259670000000 1.0
C      1  0.4740330000000  0.4630750000000  0.5140910000000 1.0
C      1  0.5259670000000  0.5369250000000  0.5140910000000 1.0
C      1  0.4740330000000  0.5369250000000  0.4859090000000 1.0
C      1  0.5140910000000  0.5259670000000  0.5369250000000 1.0
C      1  0.4859090000000  0.4740330000000  0.5369250000000 1.0
C      1  0.5140910000000  0.4740330000000  0.4630750000000 1.0
C      1  0.4935780000000  0.4175150000000  0.4837840000000 1.0
C      1  0.4175150000000  0.4837840000000  0.4935780000000 1.0
C      1  0.4837840000000  0.4935780000000  0.4175150000000 1.0
C      1  0.5064220000000  0.4175150000000  0.5162160000000 1.0
C      1  0.5064220000000  0.5824850000000  0.4837840000000 1.0
C      1  0.4935780000000  0.5824850000000  0.5162160000000 1.0
C      1  0.5824850000000  0.4837840000000  0.5064220000000 1.0
C      1  0.5824850000000  0.5162160000000  0.4935780000000 1.0
C      1  0.4175150000000  0.5162160000000  0.5064220000000 1.0
C      1  0.5162160000000  0.4935780000000  0.5824850000000 1.0
C      1  0.5162160000000  0.5064220000000  0.4175150000000 1.0
C      1  0.4837840000000  0.5064220000000  0.5824850000000 1.0
C      1  0.4837840000000  0.4175150000000  0.4935780000000 1.0
C      1  0.4935780000000  0.4837840000000  0.4175150000000 1.0
C      1  0.4175150000000  0.4935780000000  0.4837840000000 1.0
C      1  0.5162160000000  0.4175150000000  0.5064220000000 1.0
C      1  0.4837840000000  0.5824850000000  0.5064220000000 1.0
C      1  0.5162160000000  0.5824850000000  0.4935780000000 1.0
C      1  0.5064220000000  0.4837840000000  0.5824850000000 1.0
C      1  0.4935780000000  0.5162160000000  0.5824850000000 1.0
C      1  0.5064220000000  0.5162160000000  0.4175150000000 1.0
C      1  0.5824850000000  0.4935780000000  0.5162160000000 1.0
C      1  0.4175150000000  0.5064220000000  0.5162160000000 1.0
C      1  0.5824850000000  0.5064220000000  0.4837840000000 1.0
C      1  0.5600350000000  0.4583450000000  0.5236870000000 1.0
C      1  0.4583450000000  0.5236870000000  0.5600350000000 1.0
C      1  0.5236870000000  0.5600350000000  0.4583450000000 1.0
C      1  0.4399650000000  0.4583450000000  0.4763130000000 1.0
C      1  0.4399650000000  0.5416550000000  0.5236870000000 1.0
C      1  0.5600350000000  0.5416550000000  0.4763130000000 1.0
C      1  0.5416550000000  0.5236870000000  0.4399650000000 1.0
C      1  0.5416550000000  0.4763130000000  0.5600350000000 1.0
C      1  0.4583450000000  0.4763130000000  0.4399650000000 1.0
C      1  0.4763130000000  0.5600350000000  0.5416550000000 1.0
C      1  0.4763130000000  0.4399650000000  0.4583450000000 1.0
C      1  0.5236870000000  0.4399650000000  0.5416550000000 1.0
C      1  0.5236870000000  0.4583450000000  0.5600350000000 1.0
C      1  0.5600350000000  0.5236870000000  0.4583450000000 1.0
C      1  0.4583450000000  0.5600350000000  0.5236870000000 1.0
C      1  0.4763130000000  0.4583450000000  0.4399650000000 1.0
C      1  0.5236870000000  0.5416550000000  0.4399650000000 1.0
C      1  0.4763130000000  0.5416550000000  0.5600350000000 1.0
C      1  0.4399650000000  0.5236870000000  0.5416550000000 1.0
C      1  0.5600350000000  0.4763130000000  0.5416550000000 1.0
C      1  0.4399650000000  0.4763130000000  0.4583450000000 1.0
C      1  0.5416550000000  0.5600350000000  0.4763130000000 1.0
C      1  0.4583450000000  0.4399650000000  0.4763130000000 1.0
C      1  0.5416550000000  0.4399650000000  0.5236870000000 1.0
C      1  0.5250280000000  0.5136860000000  0.4641660000000 1.0
C      1  0.5136860000000  0.4641660000000  0.5250280000000 1.0
C      1  0.4641660000000  0.5250280000000  0.5136860000000 1.0
C      1  0.4749720000000  0.5136860000000  0.5358340000000 1.0
C      1  0.4749720000000  0.4863140000000  0.4641660000000 1.0
C      1  0.5250280000000  0.4863140000000  0.5358340000000 1.0
C      1  0.4863140000000  0.4641660000000  0.4749720000000 1.0
C      1  0.4863140000000  0.5358340000000  0.5250280000000 1.0
C      1  0.5136860000000  0.5358340000000  0.4749720000000 1.0
C      1  0.5358340000000  0.5250280000000  0.4863140000000 1.0
C      1  0.5358340000000  0.4749720000000  0.5136860000000 1.0
C      1  0.4641660000000  0.4749720000000  0.4863140000000 1.0
C      1  0.4641660000000  0.5136860000000  0.5250280000000 1.0
C      1  0.5250280000000  0.4641660000000  0.5136860000000 1.0
C      1  0.5136860000000  0.5250280000000  0.4641660000000 1.0
C      1  0.5358340000000  0.5136860000000  0.4749720000000 1.0
C      1  0.4641660000000  0.4863140000000  0.4749720000000 1.0
C      1  0.5358340000000  0.4863140000000  0.5250280000000 1.0
C      1  0.4749720000000  0.4641660000000  0.4863140000000 1.0
C      1  0.5250280000000  0.5358340000000  0.4863140000000 1.0
C      1  0.4749720000000  0.5358340000000  0.5136860000000 1.0
C      1  0.4863140000000  0.5250280000000  0.5358340000000 1.0
C      1  0.5136860000000  0.4749720000000  0.5358340000000 1.0
C      1  0.4863140000000  0.4749720000000  0.4641660000000 1.0
C      1  0.4526970000000  0.4427610000000  0.4625920000000 1.0
C      1  0.4427610000000  0.4625920000000  0.4526970000000 1.0
C      1  0.4625920000000  0.4526970000000  0.4427610000000 1.0
C      1  0.5473030000000  0.4427610000000  0.5374080000000 1.0
C      1  0.5473030000000  0.5572390000000  0.4625920000000 1.0
C      1  0.4526970000000  0.5572390000000  0.5374080000000 1.0
C      1  0.5572390000000  0.4625920000000  0.5473030000000 1.0
C      1  0.5572390000000  0.5374080000000  0.4526970000000 1.0
C      1  0.4427610000000  0.5374080000000  0.5473030000000 1.0
C      1  0.5374080000000  0.4526970000000  0.5572390000000 1.0
C      1  0.5374080000000  0.5473030000000  0.4427610000000 1.0
C      1  0.4625920000000  0.5473030000000  0.5572390000000 1.0
C      1  0.4625920000000  0.4427610000000  0.4526970000000 1.0
C      1  0.4526970000000  0.4625920000000  0.4427610000000 1.0
C      1  0.4427610000000  0.4526970000000  0.4625920000000 1.0
C      1  0.5374080000000  0.4427610000000  0.5473030000000 1.0
C      1  0.4625920000000  0.5572390000000  0.5473030000000 1.0
C      1  0.5374080000000  0.5572390000000  0.4526970000000 1.0
C      1  0.5473030000000  0.4625920000000  0.5572390000000 1.0
C      1  0.4526970000000  0.5374080000000  0.5572390000000 1.0
C      1  0.5473030000000  0.5374080000000  0.4427610000000 1.0
C      1  0.5572390000000  0.4526970000000  0.5374080000000 1.0
C      1  0.4427610000000  0.5473030000000  0.5374080000000 1.0
C      1  0.5572390000000  0.5473030000000  0.4625920000000 1.0
C      1  0.5539350000000  0.4707860000000  0.4707860000000 1.0
C      1  0.4707860000000  0.4707860000000  0.5539350000000 1.0
C      1  0.5292140000000  0.4460650000000  0.4707860000000 1.0
C      1  0.4460650000000  0.5292140000000  0.4707860000000 1.0
C      1  0.4460650000000  0.4707860000000  0.5292140000000 1.0
C      1  0.4707860000000  0.5539350000000  0.4707860000000 1.0
C      1  0.4707860000000  0.5292140000000  0.4460650000000 1.0
C      1  0.5292140000000  0.4707860000000  0.4460650000000 1.0
C      1  0.4707860000000  0.4460650000000  0.5292140000000 1.0
C      1  0.5292140000000  0.5292140000000  0.5539350000000 1.0
C      1  0.5292140000000  0.5539350000000  0.5292140000000 1.0
C      1  0.5539350000000  0.5292140000000  0.5292140000000 1.0
END
