TITL C-1887015-2101-40 3.05639034503685e-06 1000000 -3957.49011578565 0 0 560 (Th) n - 1
REM
REM in /nfs/bkarasulu/CARBON/AIRSS/Generating-Clusters/GAP-ML-2020/Higher-Symm/Selected-Sizes/TryA-Only_Ih-Symm/Larger-Clusters
REM
REM
REM
REM
REM
REM ./C.cell (2cf5181f0f1d4d5b12b972d32ad12063)
REM
REM compiler GCC version 9.2.1 20190827 (Red Hat 9.2.1-1)
REM options -cpp -mtune=generic -march=x86-64 -g -O0 -fpre-include=/usr/include/finclude/math-vector-fortran.h
REM seed -1074691184 -1155822013 1691513034 1059953144 967339054 -347368214 774885613 -467608222 -1204975336 -629704353 -1391975288 -4836444 -1512019723 -1688938841 373647118 1623521418 -79907586 2093420334 -697243736 1058738600 -259940288 -703521880 1423852301 -587371597 -1156516410 -88266948 1498853923 1793876790 -1785493690 1049197296 -252548789 1534836136 248451639
REM
CELL 1.54180  100.00000  100.00000  100.00000   90.00000   90.00000   90.00000
LATT -1
SFAC C  
C      1  0.5261210000000  0.4544160000000  0.5586060000000 1.0
C      1  0.4542870000000  0.5587670000000  0.5260890000000 1.0
C      1  0.5586380000000  0.5262500000000  0.4542550000000 1.0
C      1  0.5261210000000  0.5456470000000  0.4411350000000 1.0
C      1  0.4736830000000  0.4544160000000  0.4411350000000 1.0
C      1  0.4736830000000  0.5456470000000  0.5586060000000 1.0
C      1  0.4542870000000  0.4412960000000  0.4736520000000 1.0
C      1  0.5455170000000  0.5587670000000  0.4736520000000 1.0
C      1  0.5455170000000  0.4412960000000  0.5260890000000 1.0
C      1  0.5586380000000  0.4738130000000  0.5454860000000 1.0
C      1  0.4411670000000  0.5262500000000  0.5454860000000 1.0
C      1  0.4411670000000  0.4738130000000  0.4542550000000 1.0
C      1  0.4736830000000  0.4544160000000  0.5586060000000 1.0
C      1  0.5455170000000  0.5587670000000  0.5260890000000 1.0
C      1  0.4411670000000  0.5262500000000  0.4542550000000 1.0
C      1  0.4736830000000  0.5456470000000  0.4411350000000 1.0
C      1  0.5261210000000  0.4544160000000  0.4411350000000 1.0
C      1  0.5261210000000  0.5456470000000  0.5586060000000 1.0
C      1  0.5455170000000  0.4412960000000  0.4736520000000 1.0
C      1  0.4542870000000  0.5587670000000  0.4736520000000 1.0
C      1  0.4542870000000  0.4412960000000  0.5260890000000 1.0
C      1  0.4411670000000  0.4738130000000  0.5454860000000 1.0
C      1  0.5586380000000  0.5262500000000  0.5454860000000 1.0
C      1  0.5586380000000  0.4738130000000  0.4542550000000 1.0
C      1  0.5522700000000  0.5155940000000  0.5374570000000 1.0
C      1  0.5154650000000  0.5376180000000  0.5522390000000 1.0
C      1  0.5374890000000  0.5524000000000  0.5154330000000 1.0
C      1  0.5522700000000  0.4844690000000  0.4622840000000 1.0
C      1  0.4475340000000  0.5155940000000  0.4622840000000 1.0
C      1  0.4475340000000  0.4844690000000  0.5374570000000 1.0
C      1  0.5154650000000  0.4624450000000  0.4475020000000 1.0
C      1  0.4843390000000  0.5376180000000  0.4475020000000 1.0
C      1  0.4843390000000  0.4624450000000  0.5522390000000 1.0
C      1  0.5374890000000  0.4476630000000  0.4843080000000 1.0
C      1  0.4623150000000  0.5524000000000  0.4843080000000 1.0
C      1  0.4623150000000  0.4476630000000  0.5154330000000 1.0
C      1  0.4475340000000  0.5155940000000  0.5374570000000 1.0
C      1  0.4843390000000  0.5376180000000  0.5522390000000 1.0
C      1  0.4623150000000  0.5524000000000  0.5154330000000 1.0
C      1  0.4475340000000  0.4844690000000  0.4622840000000 1.0
C      1  0.5522700000000  0.5155940000000  0.4622840000000 1.0
C      1  0.5522700000000  0.4844690000000  0.5374570000000 1.0
C      1  0.4843390000000  0.4624450000000  0.4475020000000 1.0
C      1  0.5154650000000  0.5376180000000  0.4475020000000 1.0
C      1  0.5154650000000  0.4624450000000  0.5522390000000 1.0
C      1  0.4623150000000  0.4476630000000  0.4843080000000 1.0
C      1  0.5374890000000  0.5524000000000  0.4843080000000 1.0
C      1  0.5374890000000  0.4476630000000  0.5154330000000 1.0
C      1  0.5301650000000  0.5072570000000  0.4475030000000 1.0
C      1  0.5071280000000  0.4476640000000  0.5301330000000 1.0
C      1  0.4475340000000  0.5302940000000  0.5070970000000 1.0
C      1  0.5301650000000  0.4928050000000  0.5522380000000 1.0
C      1  0.4696400000000  0.5072580000000  0.5522380000000 1.0
C      1  0.4696400000000  0.4928050000000  0.4475030000000 1.0
C      1  0.5071280000000  0.5523990000000  0.4696080000000 1.0
C      1  0.4926760000000  0.4476640000000  0.4696080000000 1.0
C      1  0.4926760000000  0.5523990000000  0.5301330000000 1.0
C      1  0.4475340000000  0.4697690000000  0.4926450000000 1.0
C      1  0.5522700000000  0.5302940000000  0.4926450000000 1.0
C      1  0.5522700000000  0.4697690000000  0.5070970000000 1.0
C      1  0.4696400000000  0.5072580000000  0.4475030000000 1.0
C      1  0.4926760000000  0.4476640000000  0.5301330000000 1.0
C      1  0.5522700000000  0.5302940000000  0.5070970000000 1.0
C      1  0.4696400000000  0.4928050000000  0.5522380000000 1.0
C      1  0.5301650000000  0.5072570000000  0.5522380000000 1.0
C      1  0.5301650000000  0.4928050000000  0.4475030000000 1.0
C      1  0.4926760000000  0.5523990000000  0.4696080000000 1.0
C      1  0.5071280000000  0.4476640000000  0.4696080000000 1.0
C      1  0.5071280000000  0.5523990000000  0.5301330000000 1.0
C      1  0.5522700000000  0.4697690000000  0.4926450000000 1.0
C      1  0.4475340000000  0.5302940000000  0.4926450000000 1.0
C      1  0.4475340000000  0.4697690000000  0.5070970000000 1.0
C      1  0.5727860000000  0.4850040000000  0.5069000000000 1.0
C      1  0.4848750000000  0.5070610000000  0.5727550000000 1.0
C      1  0.5069310000000  0.5729160000000  0.4848430000000 1.0
C      1  0.5727860000000  0.5150590000000  0.4928410000000 1.0
C      1  0.4270180000000  0.4850040000000  0.4928410000000 1.0
C      1  0.4270180000000  0.5150590000000  0.5069000000000 1.0
C      1  0.4848750000000  0.4930020000000  0.4269860000000 1.0
C      1  0.5149290000000  0.5070610000000  0.4269860000000 1.0
C      1  0.5149290000000  0.4930020000000  0.5727550000000 1.0
C      1  0.5069310000000  0.4271470000000  0.5148980000000 1.0
C      1  0.4928730000000  0.5729160000000  0.5148980000000 1.0
C      1  0.4928730000000  0.4271470000000  0.4848430000000 1.0
C      1  0.4270180000000  0.4850040000000  0.5069000000000 1.0
C      1  0.5149290000000  0.5070610000000  0.5727550000000 1.0
C      1  0.4928730000000  0.5729160000000  0.4848430000000 1.0
C      1  0.4270180000000  0.5150590000000  0.4928410000000 1.0
C      1  0.5727860000000  0.4850040000000  0.4928410000000 1.0
C      1  0.5727860000000  0.5150590000000  0.5069000000000 1.0
C      1  0.5149290000000  0.4930020000000  0.4269860000000 1.0
C      1  0.4848750000000  0.5070610000000  0.4269860000000 1.0
C      1  0.4848750000000  0.4930020000000  0.5727550000000 1.0
C      1  0.4928730000000  0.4271470000000  0.5148980000000 1.0
C      1  0.5069310000000  0.5729160000000  0.5148980000000 1.0
C      1  0.5069310000000  0.4271470000000  0.4848430000000 1.0
C      1  0.4594560000000  0.5074720000000  0.5414100000000 1.0
C      1  0.5073420000000  0.5415710000000  0.4594240000000 1.0
C      1  0.5414420000000  0.4595850000000  0.5073110000000 1.0
C      1  0.4594560000000  0.4925910000000  0.4583310000000 1.0
C      1  0.5403480000000  0.5074720000000  0.4583310000000 1.0
C      1  0.5403480000000  0.4925910000000  0.5414100000000 1.0
C      1  0.5073420000000  0.4584920000000  0.5403170000000 1.0
C      1  0.4924620000000  0.5415710000000  0.5403170000000 1.0
C      1  0.4924620000000  0.4584920000000  0.4594240000000 1.0
C      1  0.5414420000000  0.5404780000000  0.4924300000000 1.0
C      1  0.4583620000000  0.4595850000000  0.4924300000000 1.0
C      1  0.4583620000000  0.5404780000000  0.5073110000000 1.0
C      1  0.5403480000000  0.5074720000000  0.5414100000000 1.0
C      1  0.4924620000000  0.5415710000000  0.4594240000000 1.0
C      1  0.4583620000000  0.4595850000000  0.5073110000000 1.0
C      1  0.5403480000000  0.4925910000000  0.4583310000000 1.0
C      1  0.4594560000000  0.5074720000000  0.4583310000000 1.0
C      1  0.4594560000000  0.4925910000000  0.5414100000000 1.0
C      1  0.4924620000000  0.4584920000000  0.5403170000000 1.0
C      1  0.5073420000000  0.5415710000000  0.5403170000000 1.0
C      1  0.5073420000000  0.4584920000000  0.4594240000000 1.0
C      1  0.4583620000000  0.5404780000000  0.4924300000000 1.0
C      1  0.5414420000000  0.4595850000000  0.4924300000000 1.0
C      1  0.5414420000000  0.5404780000000  0.5073110000000 1.0
C      1  0.4463860000000  0.5500080000000  0.4389510000000 1.0
C      1  0.5498790000000  0.4391120000000  0.4463540000000 1.0
C      1  0.4389830000000  0.4465150000000  0.5498480000000 1.0
C      1  0.4463860000000  0.4500550000000  0.5607900000000 1.0
C      1  0.5534180000000  0.5500080000000  0.5607900000000 1.0
C      1  0.5534180000000  0.4500550000000  0.4389510000000 1.0
C      1  0.5498790000000  0.5609510000000  0.5533870000000 1.0
C      1  0.4499250000000  0.4391120000000  0.5533870000000 1.0
C      1  0.4499250000000  0.5609510000000  0.4463540000000 1.0
C      1  0.4389830000000  0.5535480000000  0.4498940000000 1.0
C      1  0.5608220000000  0.4465150000000  0.4498940000000 1.0
C      1  0.5608220000000  0.5535480000000  0.5498480000000 1.0
C      1  0.5534180000000  0.5500080000000  0.4389510000000 1.0
C      1  0.4499250000000  0.4391120000000  0.4463540000000 1.0
C      1  0.5608220000000  0.4465150000000  0.5498480000000 1.0
C      1  0.5534180000000  0.4500550000000  0.5607900000000 1.0
C      1  0.4463860000000  0.5500080000000  0.5607900000000 1.0
C      1  0.4463860000000  0.4500550000000  0.4389510000000 1.0
C      1  0.4499250000000  0.5609510000000  0.5533870000000 1.0
C      1  0.5498790000000  0.4391120000000  0.5533870000000 1.0
C      1  0.5498790000000  0.5609510000000  0.4463540000000 1.0
C      1  0.5608220000000  0.5535480000000  0.4498940000000 1.0
C      1  0.4389830000000  0.4465150000000  0.4498940000000 1.0
C      1  0.4389830000000  0.5535480000000  0.5498480000000 1.0
C      1  0.5141440000000  0.5655080000000  0.4419990000000 1.0
C      1  0.5653780000000  0.4421590000000  0.5141130000000 1.0
C      1  0.4420300000000  0.5142740000000  0.5653470000000 1.0
C      1  0.5141440000000  0.4345550000000  0.5577430000000 1.0
C      1  0.4856600000000  0.5655080000000  0.5577430000000 1.0
C      1  0.4856600000000  0.4345550000000  0.4419990000000 1.0
C      1  0.5653780000000  0.5579030000000  0.4856280000000 1.0
C      1  0.4344260000000  0.4421590000000  0.4856280000000 1.0
C      1  0.4344260000000  0.5579030000000  0.5141130000000 1.0
C      1  0.4420300000000  0.4857890000000  0.4343950000000 1.0
C      1  0.5577740000000  0.5142740000000  0.4343950000000 1.0
C      1  0.5577740000000  0.4857890000000  0.5653470000000 1.0
C      1  0.4856600000000  0.5655080000000  0.4419990000000 1.0
C      1  0.4344260000000  0.4421590000000  0.5141130000000 1.0
C      1  0.5577740000000  0.5142740000000  0.5653470000000 1.0
C      1  0.4856600000000  0.4345550000000  0.5577430000000 1.0
C      1  0.5141440000000  0.5655080000000  0.5577430000000 1.0
C      1  0.5141440000000  0.4345550000000  0.4419990000000 1.0
C      1  0.4344260000000  0.5579030000000  0.4856280000000 1.0
C      1  0.5653780000000  0.4421590000000  0.4856280000000 1.0
C      1  0.5653780000000  0.5579030000000  0.5141130000000 1.0
C      1  0.5577740000000  0.4857890000000  0.4343950000000 1.0
C      1  0.4420300000000  0.5142740000000  0.4343950000000 1.0
C      1  0.4420300000000  0.4857890000000  0.5653470000000 1.0
C      1  0.4443880000000  0.5269010000000  0.5595060000000 1.0
C      1  0.5267720000000  0.5596670000000  0.4443570000000 1.0
C      1  0.5595380000000  0.4445170000000  0.5267400000000 1.0
C      1  0.4443880000000  0.4731620000000  0.4402350000000 1.0
C      1  0.5554160000000  0.5269010000000  0.4402350000000 1.0
C      1  0.5554160000000  0.4731620000000  0.5595060000000 1.0
C      1  0.5267720000000  0.4403960000000  0.5553850000000 1.0
C      1  0.4730320000000  0.5596670000000  0.5553850000000 1.0
C      1  0.4730320000000  0.4403960000000  0.4443570000000 1.0
C      1  0.5595380000000  0.5555450000000  0.4730010000000 1.0
C      1  0.4402660000000  0.4445170000000  0.4730010000000 1.0
C      1  0.4402660000000  0.5555450000000  0.5267400000000 1.0
C      1  0.5554160000000  0.5269010000000  0.5595060000000 1.0
C      1  0.4730320000000  0.5596670000000  0.4443570000000 1.0
C      1  0.4402660000000  0.4445170000000  0.5267400000000 1.0
C      1  0.5554160000000  0.4731620000000  0.4402350000000 1.0
C      1  0.4443880000000  0.5269010000000  0.4402350000000 1.0
C      1  0.4443880000000  0.4731620000000  0.5595060000000 1.0
C      1  0.4730320000000  0.4403960000000  0.5553850000000 1.0
C      1  0.5267720000000  0.5596670000000  0.5553850000000 1.0
C      1  0.5267720000000  0.4403960000000  0.4443570000000 1.0
C      1  0.4402660000000  0.5555450000000  0.4730010000000 1.0
C      1  0.5595380000000  0.4445170000000  0.4730010000000 1.0
C      1  0.5595380000000  0.5555450000000  0.5267400000000 1.0
C      1  0.4613520000000  0.4123060000000  0.5062180000000 1.0
C      1  0.4121760000000  0.5063790000000  0.4613210000000 1.0
C      1  0.5062500000000  0.4614810000000  0.4121450000000 1.0
C      1  0.4613520000000  0.5877570000000  0.4935230000000 1.0
C      1  0.5384520000000  0.4123060000000  0.4935230000000 1.0
C      1  0.5384520000000  0.5877570000000  0.5062180000000 1.0
C      1  0.4121760000000  0.4936840000000  0.5384210000000 1.0
C      1  0.5876280000000  0.5063790000000  0.5384210000000 1.0
C      1  0.5876280000000  0.4936840000000  0.4613210000000 1.0
C      1  0.5062500000000  0.5385820000000  0.5875960000000 1.0
C      1  0.4935540000000  0.4614810000000  0.5875960000000 1.0
C      1  0.4935540000000  0.5385820000000  0.4121450000000 1.0
C      1  0.5384520000000  0.4123060000000  0.5062180000000 1.0
C      1  0.5876280000000  0.5063790000000  0.4613210000000 1.0
C      1  0.4935540000000  0.4614810000000  0.4121450000000 1.0
C      1  0.5384520000000  0.5877570000000  0.4935230000000 1.0
C      1  0.4613520000000  0.4123060000000  0.4935230000000 1.0
C      1  0.4613520000000  0.5877570000000  0.5062180000000 1.0
C      1  0.5876280000000  0.4936840000000  0.5384210000000 1.0
C      1  0.4121760000000  0.5063790000000  0.5384210000000 1.0
C      1  0.4121760000000  0.4936840000000  0.4613210000000 1.0
C      1  0.4935540000000  0.5385820000000  0.5875960000000 1.0
C      1  0.5062500000000  0.4614810000000  0.5875960000000 1.0
C      1  0.5062500000000  0.5385820000000  0.4121450000000 1.0
C      1  0.4734810000000  0.4854470000000  0.5777040000000 1.0
C      1  0.4853180000000  0.5778650000000  0.4734500000000 1.0
C      1  0.5777360000000  0.4736110000000  0.4852860000000 1.0
C      1  0.4734810000000  0.5146160000000  0.4220370000000 1.0
C      1  0.5263230000000  0.4854470000000  0.4220370000000 1.0
C      1  0.5263230000000  0.5146160000000  0.5777040000000 1.0
C      1  0.4853180000000  0.4221980000000  0.5262910000000 1.0
C      1  0.5144860000000  0.5778650000000  0.5262910000000 1.0
C      1  0.5144860000000  0.4221980000000  0.4734500000000 1.0
C      1  0.5777360000000  0.5264520000000  0.5144550000000 1.0
C      1  0.4220680000000  0.4736110000000  0.5144550000000 1.0
C      1  0.4220680000000  0.5264520000000  0.4852860000000 1.0
C      1  0.5263230000000  0.4854470000000  0.5777040000000 1.0
C      1  0.5144860000000  0.5778650000000  0.4734500000000 1.0
C      1  0.4220680000000  0.4736110000000  0.4852860000000 1.0
C      1  0.5263230000000  0.5146160000000  0.4220370000000 1.0
C      1  0.4734810000000  0.4854470000000  0.4220370000000 1.0
C      1  0.4734810000000  0.5146160000000  0.5777040000000 1.0
C      1  0.5144860000000  0.4221980000000  0.5262910000000 1.0
C      1  0.4853180000000  0.5778650000000  0.5262910000000 1.0
C      1  0.4853180000000  0.4221980000000  0.4734500000000 1.0
C      1  0.4220680000000  0.5264520000000  0.5144550000000 1.0
C      1  0.5777360000000  0.4736110000000  0.5144550000000 1.0
C      1  0.5777360000000  0.5264520000000  0.4852860000000 1.0
C      1  0.5413260000000  0.4803690000000  0.4732530000000 1.0
C      1  0.4802390000000  0.4734140000000  0.5412950000000 1.0
C      1  0.4732850000000  0.5414560000000  0.4802080000000 1.0
C      1  0.5413260000000  0.5196940000000  0.5264880000000 1.0
C      1  0.4584780000000  0.4803690000000  0.5264880000000 1.0
C      1  0.4584780000000  0.5196940000000  0.4732530000000 1.0
C      1  0.4802390000000  0.5266490000000  0.4584460000000 1.0
C      1  0.5195650000000  0.4734140000000  0.4584460000000 1.0
C      1  0.5195650000000  0.5266490000000  0.5412950000000 1.0
C      1  0.4732850000000  0.4586070000000  0.5195330000000 1.0
C      1  0.5265190000000  0.5414560000000  0.5195330000000 1.0
C      1  0.5265190000000  0.4586070000000  0.4802080000000 1.0
C      1  0.4584780000000  0.4803690000000  0.4732530000000 1.0
C      1  0.5195650000000  0.4734140000000  0.5412950000000 1.0
C      1  0.5265190000000  0.5414560000000  0.4802080000000 1.0
C      1  0.4584780000000  0.5196940000000  0.5264880000000 1.0
C      1  0.5413260000000  0.4803690000000  0.5264880000000 1.0
C      1  0.5413260000000  0.5196940000000  0.4732530000000 1.0
C      1  0.5195650000000  0.5266490000000  0.4584460000000 1.0
C      1  0.4802390000000  0.4734140000000  0.4584460000000 1.0
C      1  0.4802390000000  0.5266490000000  0.5412950000000 1.0
C      1  0.5265190000000  0.4586070000000  0.5195330000000 1.0
C      1  0.4732850000000  0.5414560000000  0.5195330000000 1.0
C      1  0.4732850000000  0.4586070000000  0.4802080000000 1.0
C      1  0.5306710000000  0.5640140000000  0.4922220000000 1.0
C      1  0.5638850000000  0.4923830000000  0.5306400000000 1.0
C      1  0.4922540000000  0.5308000000000  0.5638530000000 1.0
C      1  0.5306710000000  0.4360490000000  0.5075190000000 1.0
C      1  0.4691330000000  0.5640140000000  0.5075190000000 1.0
C      1  0.4691330000000  0.4360490000000  0.4922220000000 1.0
C      1  0.5638850000000  0.5076800000000  0.4691020000000 1.0
C      1  0.4359200000000  0.4923830000000  0.4691020000000 1.0
C      1  0.4359200000000  0.5076800000000  0.5306400000000 1.0
C      1  0.4922540000000  0.4692630000000  0.4358880000000 1.0
C      1  0.5075510000000  0.5308000000000  0.4358880000000 1.0
C      1  0.5075510000000  0.4692630000000  0.5638530000000 1.0
C      1  0.4691330000000  0.5640140000000  0.4922220000000 1.0
C      1  0.4359200000000  0.4923830000000  0.5306400000000 1.0
C      1  0.5075510000000  0.5308000000000  0.5638530000000 1.0
C      1  0.4691330000000  0.4360490000000  0.5075190000000 1.0
C      1  0.5306710000000  0.5640140000000  0.5075190000000 1.0
C      1  0.5306710000000  0.4360490000000  0.4922220000000 1.0
C      1  0.4359200000000  0.5076800000000  0.4691020000000 1.0
C      1  0.5638850000000  0.4923830000000  0.4691020000000 1.0
C      1  0.5638850000000  0.5076800000000  0.5306400000000 1.0
C      1  0.5075510000000  0.4692630000000  0.4358880000000 1.0
C      1  0.4922540000000  0.5308000000000  0.4358880000000 1.0
C      1  0.4922540000000  0.4692630000000  0.5638530000000 1.0
C      1  0.5375850000000  0.4928140000000  0.5811630000000 1.0
C      1  0.4926850000000  0.5813240000000  0.5375530000000 1.0
C      1  0.5811950000000  0.5377140000000  0.4926530000000 1.0
C      1  0.5375850000000  0.5072490000000  0.4185780000000 1.0
C      1  0.4622190000000  0.4928140000000  0.4185780000000 1.0
C      1  0.4622190000000  0.5072490000000  0.5811630000000 1.0
C      1  0.4926850000000  0.4187390000000  0.4621880000000 1.0
C      1  0.5071200000000  0.5813240000000  0.4621880000000 1.0
C      1  0.5071200000000  0.4187390000000  0.5375530000000 1.0
C      1  0.5811950000000  0.4623490000000  0.5070880000000 1.0
C      1  0.4186090000000  0.5377140000000  0.5070880000000 1.0
C      1  0.4186090000000  0.4623490000000  0.4926530000000 1.0
C      1  0.4622190000000  0.4928140000000  0.5811630000000 1.0
C      1  0.5071200000000  0.5813240000000  0.5375530000000 1.0
C      1  0.4186090000000  0.5377140000000  0.4926530000000 1.0
C      1  0.4622190000000  0.5072490000000  0.4185780000000 1.0
C      1  0.5375850000000  0.4928140000000  0.4185780000000 1.0
C      1  0.5375850000000  0.5072490000000  0.5811630000000 1.0
C      1  0.5071200000000  0.4187390000000  0.4621880000000 1.0
C      1  0.4926850000000  0.5813240000000  0.4621880000000 1.0
C      1  0.4926850000000  0.4187390000000  0.5375530000000 1.0
C      1  0.4186090000000  0.4623490000000  0.5070880000000 1.0
C      1  0.5811950000000  0.5377140000000  0.5070880000000 1.0
C      1  0.5811950000000  0.4623490000000  0.4926530000000 1.0
C      1  0.5565260000000  0.5649390000000  0.4935580000000 1.0
C      1  0.5648090000000  0.4937190000000  0.5564940000000 1.0
C      1  0.4935890000000  0.5566550000000  0.5647780000000 1.0
C      1  0.5565260000000  0.4351240000000  0.5061830000000 1.0
C      1  0.4432780000000  0.5649390000000  0.5061830000000 1.0
C      1  0.4432780000000  0.4351240000000  0.4935580000000 1.0
C      1  0.5648090000000  0.5063440000000  0.4432470000000 1.0
C      1  0.4349950000000  0.4937190000000  0.4432470000000 1.0
C      1  0.4349950000000  0.5063440000000  0.5564940000000 1.0
C      1  0.4935890000000  0.4434080000000  0.4349630000000 1.0
C      1  0.5062150000000  0.5566550000000  0.4349630000000 1.0
C      1  0.5062150000000  0.4434080000000  0.5647780000000 1.0
C      1  0.4432780000000  0.5649390000000  0.4935580000000 1.0
C      1  0.4349950000000  0.4937190000000  0.5564940000000 1.0
C      1  0.5062150000000  0.5566550000000  0.5647780000000 1.0
C      1  0.4432780000000  0.4351240000000  0.5061830000000 1.0
C      1  0.5565260000000  0.5649390000000  0.5061830000000 1.0
C      1  0.5565260000000  0.4351240000000  0.4935580000000 1.0
C      1  0.4349950000000  0.5063440000000  0.4432470000000 1.0
C      1  0.5648090000000  0.4937190000000  0.4432470000000 1.0
C      1  0.5648090000000  0.5063440000000  0.5564940000000 1.0
C      1  0.5062150000000  0.4434080000000  0.4349630000000 1.0
C      1  0.4935890000000  0.5566550000000  0.4349630000000 1.0
C      1  0.4935890000000  0.4434080000000  0.5647780000000 1.0
C      1  0.5074760000000  0.4727320000000  0.5318030000000 1.0
C      1  0.4726030000000  0.5319640000000  0.5074450000000 1.0
C      1  0.5318350000000  0.5076050000000  0.4725720000000 1.0
C      1  0.5074760000000  0.5273300000000  0.4679380000000 1.0
C      1  0.4923280000000  0.4727320000000  0.4679380000000 1.0
C      1  0.4923280000000  0.5273300000000  0.5318030000000 1.0
C      1  0.4726030000000  0.4680990000000  0.4922970000000 1.0
C      1  0.5272010000000  0.5319640000000  0.4922970000000 1.0
C      1  0.5272010000000  0.4680990000000  0.5074450000000 1.0
C      1  0.5318350000000  0.4924580000000  0.5271700000000 1.0
C      1  0.4679690000000  0.5076050000000  0.5271700000000 1.0
C      1  0.4679690000000  0.4924580000000  0.4725720000000 1.0
C      1  0.4923280000000  0.4727320000000  0.5318030000000 1.0
C      1  0.5272010000000  0.5319640000000  0.5074450000000 1.0
C      1  0.4679690000000  0.5076050000000  0.4725720000000 1.0
C      1  0.4923280000000  0.5273300000000  0.4679380000000 1.0
C      1  0.5074760000000  0.4727320000000  0.4679380000000 1.0
C      1  0.5074760000000  0.5273300000000  0.5318030000000 1.0
C      1  0.5272010000000  0.4680990000000  0.4922970000000 1.0
C      1  0.4726030000000  0.5319640000000  0.4922970000000 1.0
C      1  0.4726030000000  0.4680990000000  0.5074450000000 1.0
C      1  0.4679690000000  0.4924580000000  0.5271700000000 1.0
C      1  0.5318350000000  0.5076050000000  0.5271700000000 1.0
C      1  0.5318350000000  0.4924580000000  0.4725720000000 1.0
C      1  0.5481590000000  0.4624040000000  0.5650220000000 1.0
C      1  0.4622750000000  0.5651820000000  0.5481280000000 1.0
C      1  0.5650530000000  0.5482890000000  0.4622430000000 1.0
C      1  0.5481590000000  0.5376590000000  0.4347200000000 1.0
C      1  0.4516450000000  0.4624040000000  0.4347200000000 1.0
C      1  0.4516450000000  0.5376590000000  0.5650220000000 1.0
C      1  0.4622750000000  0.4348800000000  0.4516130000000 1.0
C      1  0.5375290000000  0.5651820000000  0.4516130000000 1.0
C      1  0.5375290000000  0.4348800000000  0.5481280000000 1.0
C      1  0.5650530000000  0.4517740000000  0.5374980000000 1.0
C      1  0.4347510000000  0.5482890000000  0.5374980000000 1.0
C      1  0.4347510000000  0.4517740000000  0.4622430000000 1.0
C      1  0.4516450000000  0.4624040000000  0.5650220000000 1.0
C      1  0.5375290000000  0.5651820000000  0.5481280000000 1.0
C      1  0.4347510000000  0.5482890000000  0.4622430000000 1.0
C      1  0.4516450000000  0.5376590000000  0.4347200000000 1.0
C      1  0.5481590000000  0.4624040000000  0.4347200000000 1.0
C      1  0.5481590000000  0.5376590000000  0.5650220000000 1.0
C      1  0.5375290000000  0.4348800000000  0.4516130000000 1.0
C      1  0.4622750000000  0.5651820000000  0.4516130000000 1.0
C      1  0.4622750000000  0.4348800000000  0.5481280000000 1.0
C      1  0.4347510000000  0.4517740000000  0.5374980000000 1.0
C      1  0.5650530000000  0.5482890000000  0.5374980000000 1.0
C      1  0.5650530000000  0.4517740000000  0.4622430000000 1.0
C      1  0.4813500000000  0.4854940000000  0.5503010000000 1.0
C      1  0.4853650000000  0.5504610000000  0.4813190000000 1.0
C      1  0.5503320000000  0.4814790000000  0.4853330000000 1.0
C      1  0.4813500000000  0.5145690000000  0.4494410000000 1.0
C      1  0.5184540000000  0.4854940000000  0.4494410000000 1.0
C      1  0.5184540000000  0.5145690000000  0.5503010000000 1.0
C      1  0.4853650000000  0.4496020000000  0.5184230000000 1.0
C      1  0.5144390000000  0.5504610000000  0.5184230000000 1.0
C      1  0.5144390000000  0.4496020000000  0.4813190000000 1.0
C      1  0.5503320000000  0.5185840000000  0.5144080000000 1.0
C      1  0.4494720000000  0.4814790000000  0.5144080000000 1.0
C      1  0.4494720000000  0.5185840000000  0.4853330000000 1.0
C      1  0.5184540000000  0.4854940000000  0.5503010000000 1.0
C      1  0.5144390000000  0.5504610000000  0.4813190000000 1.0
C      1  0.4494720000000  0.4814790000000  0.4853330000000 1.0
C      1  0.5184540000000  0.5145690000000  0.4494410000000 1.0
C      1  0.4813500000000  0.4854940000000  0.4494410000000 1.0
C      1  0.4813500000000  0.5145690000000  0.5503010000000 1.0
C      1  0.5144390000000  0.4496020000000  0.5184230000000 1.0
C      1  0.4853650000000  0.5504610000000  0.5184230000000 1.0
C      1  0.4853650000000  0.4496020000000  0.4813190000000 1.0
C      1  0.4494720000000  0.5185840000000  0.5144080000000 1.0
C      1  0.5503320000000  0.4814790000000  0.5144080000000 1.0
C      1  0.5503320000000  0.5185840000000  0.4853330000000 1.0
C      1  0.4848240000000  0.5618800000000  0.4918010000000 1.0
C      1  0.5617500000000  0.4919610000000  0.4847930000000 1.0
C      1  0.4918320000000  0.4849540000000  0.5617190000000 1.0
C      1  0.4848240000000  0.4381830000000  0.5079410000000 1.0
C      1  0.5149800000000  0.5618800000000  0.5079410000000 1.0
C      1  0.5149800000000  0.4381830000000  0.4918010000000 1.0
C      1  0.5617500000000  0.5081010000000  0.5149490000000 1.0
C      1  0.4380540000000  0.4919610000000  0.5149490000000 1.0
C      1  0.4380540000000  0.5081010000000  0.4847930000000 1.0
C      1  0.4918320000000  0.5151090000000  0.4380220000000 1.0
C      1  0.5079720000000  0.4849540000000  0.4380220000000 1.0
C      1  0.5079720000000  0.5151090000000  0.5617190000000 1.0
C      1  0.5149800000000  0.5618800000000  0.4918010000000 1.0
C      1  0.4380540000000  0.4919610000000  0.4847930000000 1.0
C      1  0.5079720000000  0.4849540000000  0.5617190000000 1.0
C      1  0.5149800000000  0.4381830000000  0.5079410000000 1.0
C      1  0.4848240000000  0.5618800000000  0.5079410000000 1.0
C      1  0.4848240000000  0.4381830000000  0.4918010000000 1.0
C      1  0.4380540000000  0.5081010000000  0.5149490000000 1.0
C      1  0.5617500000000  0.4919610000000  0.5149490000000 1.0
C      1  0.5617500000000  0.5081010000000  0.4847930000000 1.0
C      1  0.5079720000000  0.5151090000000  0.4380220000000 1.0
C      1  0.4918320000000  0.4849540000000  0.4380220000000 1.0
C      1  0.4918320000000  0.5151090000000  0.5617190000000 1.0
C      1  0.5374910000000  0.4326250000000  0.5342290000000 1.0
C      1  0.4324960000000  0.5343900000000  0.5374600000000 1.0
C      1  0.5342600000000  0.5376200000000  0.4324640000000 1.0
C      1  0.5374910000000  0.5674380000000  0.4655130000000 1.0
C      1  0.4623130000000  0.4326250000000  0.4655130000000 1.0
C      1  0.4623130000000  0.5674380000000  0.5342290000000 1.0
C      1  0.4324960000000  0.4656730000000  0.4622820000000 1.0
C      1  0.5673090000000  0.5343900000000  0.4622820000000 1.0
C      1  0.5673090000000  0.4656730000000  0.5374600000000 1.0
C      1  0.5342600000000  0.4624430000000  0.5672770000000 1.0
C      1  0.4655440000000  0.5376200000000  0.5672770000000 1.0
C      1  0.4655440000000  0.4624430000000  0.4324640000000 1.0
C      1  0.4623130000000  0.4326250000000  0.5342290000000 1.0
C      1  0.5673090000000  0.5343900000000  0.5374600000000 1.0
C      1  0.4655440000000  0.5376200000000  0.4324640000000 1.0
C      1  0.4623130000000  0.5674380000000  0.4655130000000 1.0
C      1  0.5374910000000  0.4326250000000  0.4655130000000 1.0
C      1  0.5374910000000  0.5674380000000  0.5342290000000 1.0
C      1  0.5673090000000  0.4656730000000  0.4622820000000 1.0
C      1  0.4324960000000  0.5343900000000  0.4622820000000 1.0
C      1  0.4324960000000  0.4656730000000  0.5374600000000 1.0
C      1  0.4655440000000  0.4624430000000  0.5672770000000 1.0
C      1  0.5342600000000  0.5376200000000  0.5672770000000 1.0
C      1  0.5342600000000  0.4624430000000  0.4324640000000 1.0
C      1  0.4712480000000  0.5756210000000  0.5266190000000 1.0
C      1  0.5754910000000  0.5267800000000  0.4712160000000 1.0
C      1  0.5266500000000  0.4713770000000  0.5754600000000 1.0
C      1  0.4712480000000  0.4244420000000  0.4731220000000 1.0
C      1  0.5285560000000  0.5756210000000  0.4731220000000 1.0
C      1  0.5285560000000  0.4244420000000  0.5266190000000 1.0
C      1  0.5754910000000  0.4732830000000  0.5285250000000 1.0
C      1  0.4243130000000  0.5267800000000  0.5285250000000 1.0
C      1  0.4243130000000  0.4732830000000  0.4712160000000 1.0
C      1  0.5266500000000  0.5286860000000  0.4242810000000 1.0
C      1  0.4731540000000  0.4713770000000  0.4242810000000 1.0
C      1  0.4731540000000  0.5286860000000  0.5754600000000 1.0
C      1  0.5285560000000  0.5756210000000  0.5266190000000 1.0
C      1  0.4243130000000  0.5267800000000  0.4712160000000 1.0
C      1  0.4731540000000  0.4713770000000  0.5754600000000 1.0
C      1  0.5285560000000  0.4244420000000  0.4731220000000 1.0
C      1  0.4712480000000  0.5756210000000  0.4731220000000 1.0
C      1  0.4712480000000  0.4244420000000  0.5266190000000 1.0
C      1  0.4243130000000  0.4732830000000  0.5285250000000 1.0
C      1  0.5754910000000  0.5267800000000  0.5285250000000 1.0
C      1  0.5754910000000  0.4732830000000  0.4712160000000 1.0
C      1  0.4731540000000  0.5286860000000  0.4242810000000 1.0
C      1  0.5266500000000  0.4713770000000  0.4242810000000 1.0
C      1  0.5266500000000  0.5286860000000  0.5754600000000 1.0
C      1  0.5770060000000  0.5137200000000  0.5339280000000 1.0
C      1  0.5135910000000  0.5340890000000  0.5769750000000 1.0
C      1  0.5339590000000  0.5771360000000  0.5135600000000 1.0
C      1  0.5770060000000  0.4863420000000  0.4658140000000 1.0
C      1  0.4227980000000  0.5137200000000  0.4658140000000 1.0
C      1  0.4227980000000  0.4863420000000  0.5339280000000 1.0
C      1  0.5135910000000  0.4659740000000  0.4227660000000 1.0
C      1  0.4862130000000  0.5340890000000  0.4227660000000 1.0
C      1  0.4862130000000  0.4659740000000  0.5769750000000 1.0
C      1  0.5339590000000  0.4229270000000  0.4861820000000 1.0
C      1  0.4658450000000  0.5771360000000  0.4861820000000 1.0
C      1  0.4658450000000  0.4229270000000  0.5135600000000 1.0
C      1  0.4227980000000  0.5137200000000  0.5339280000000 1.0
C      1  0.4862130000000  0.5340890000000  0.5769750000000 1.0
C      1  0.4658450000000  0.5771360000000  0.5135600000000 1.0
C      1  0.4227980000000  0.4863420000000  0.4658140000000 1.0
C      1  0.5770060000000  0.5137200000000  0.4658140000000 1.0
C      1  0.5770060000000  0.4863420000000  0.5339280000000 1.0
C      1  0.4862130000000  0.4659740000000  0.4227660000000 1.0
C      1  0.5135910000000  0.5340890000000  0.4227660000000 1.0
C      1  0.5135910000000  0.4659740000000  0.5769750000000 1.0
C      1  0.4658450000000  0.4229270000000  0.4861820000000 1.0
C      1  0.5339590000000  0.5771360000000  0.4861820000000 1.0
C      1  0.5339590000000  0.4229270000000  0.5135600000000 1.0
C      1  0.4812130000000  0.4806300000000  0.4920350000000 1.0
C      1  0.4805000000000  0.4921960000000  0.4811820000000 1.0
C      1  0.4920660000000  0.4813430000000  0.4804690000000 1.0
C      1  0.4812130000000  0.5194330000000  0.5077070000000 1.0
C      1  0.5185910000000  0.4806300000000  0.5077070000000 1.0
C      1  0.5185910000000  0.5194330000000  0.4920350000000 1.0
C      1  0.4805000000000  0.5078670000000  0.5185590000000 1.0
C      1  0.5193040000000  0.4921960000000  0.5185590000000 1.0
C      1  0.5193040000000  0.5078670000000  0.4811820000000 1.0
C      1  0.4920660000000  0.5187200000000  0.5192720000000 1.0
C      1  0.5077380000000  0.4813430000000  0.5192720000000 1.0
C      1  0.5077380000000  0.5187200000000  0.4804690000000 1.0
C      1  0.5185910000000  0.4806300000000  0.4920350000000 1.0
C      1  0.5193040000000  0.4921960000000  0.4811820000000 1.0
C      1  0.5077380000000  0.4813430000000  0.4804690000000 1.0
C      1  0.5185910000000  0.5194330000000  0.5077070000000 1.0
C      1  0.4812130000000  0.4806300000000  0.5077070000000 1.0
C      1  0.4812130000000  0.5194330000000  0.4920350000000 1.0
C      1  0.5193040000000  0.5078670000000  0.5185590000000 1.0
C      1  0.4805000000000  0.4921960000000  0.5185590000000 1.0
C      1  0.4805000000000  0.5078670000000  0.4811820000000 1.0
C      1  0.5077380000000  0.5187200000000  0.5192720000000 1.0
C      1  0.4920660000000  0.4813430000000  0.5192720000000 1.0
C      1  0.4920660000000  0.5187200000000  0.4804690000000 1.0
C      1  0.4484630000000  0.4927570000000  0.5758420000000 1.0
C      1  0.4926280000000  0.5760020000000  0.4484320000000 1.0
C      1  0.5758730000000  0.4485930000000  0.4925960000000 1.0
C      1  0.4484630000000  0.5073060000000  0.4239000000000 1.0
C      1  0.5513410000000  0.4927570000000  0.4239000000000 1.0
C      1  0.5513410000000  0.5073060000000  0.5758420000000 1.0
C      1  0.4926280000000  0.4240600000000  0.5513090000000 1.0
C      1  0.5071760000000  0.5760020000000  0.5513090000000 1.0
C      1  0.5071760000000  0.4240600000000  0.4484320000000 1.0
C      1  0.5758730000000  0.5514700000000  0.5071450000000 1.0
C      1  0.4239310000000  0.4485930000000  0.5071450000000 1.0
C      1  0.4239310000000  0.5514700000000  0.4925960000000 1.0
C      1  0.5513410000000  0.4927570000000  0.5758420000000 1.0
C      1  0.5071760000000  0.5760020000000  0.4484320000000 1.0
C      1  0.4239310000000  0.4485930000000  0.4925960000000 1.0
C      1  0.5513410000000  0.5073060000000  0.4239000000000 1.0
C      1  0.4484630000000  0.4927570000000  0.4239000000000 1.0
C      1  0.4484630000000  0.5073060000000  0.5758420000000 1.0
C      1  0.5071760000000  0.4240600000000  0.5513090000000 1.0
C      1  0.4926280000000  0.5760020000000  0.5513090000000 1.0
C      1  0.4926280000000  0.4240600000000  0.4484320000000 1.0
C      1  0.4239310000000  0.5514700000000  0.5071450000000 1.0
C      1  0.5758730000000  0.4485930000000  0.5071450000000 1.0
C      1  0.5758730000000  0.5514700000000  0.4925960000000 1.0
C      1  0.4685990000000  0.4687280000000  0.5311740000000 1.0
C      1  0.4685990000000  0.5313350000000  0.4685670000000 1.0
C      1  0.5312060000000  0.4687280000000  0.4685670000000 1.0
C      1  0.5312060000000  0.4687280000000  0.5311740000000 1.0
C      1  0.5312060000000  0.5313350000000  0.4685670000000 1.0
C      1  0.4685990000000  0.5313350000000  0.5311740000000 1.0
C      1  0.5312060000000  0.5313350000000  0.5311740000000 1.0
C      1  0.4685990000000  0.4687280000000  0.4685670000000 1.0
END
