TITL C-1892074-1603-72 -2.35794902699425e-07 1000000 -1621.88064795913 0 0 240 (Th) n - 1
REM
REM in /nfs/bkarasulu/CARBON/AIRSS/Generating-Clusters/GAP-ML-2020/Higher-Symm/Selected-Sizes/TryA-Only_Ih-Symm/Larger-Clusters
REM
REM
REM
REM
REM
REM ./C.cell (2cf5181f0f1d4d5b12b972d32ad12063)
REM
REM compiler GCC version 9.2.1 20190827 (Red Hat 9.2.1-1)
REM options -cpp -mtune=generic -march=x86-64 -g -O0 -fpre-include=/usr/include/finclude/math-vector-fortran.h
REM seed 456000699 -238435429 -1001389775 -1257805105 1253556526 -1153249386 1694873216 829711188 477509480 -79754624 -1331852844 -226335114 967272378 1417244920 -27870831 -509387287 -803380726 -1502219973 547729094 673740136 -2115073175 -92746521 -92534730 72623483 885218577 -428012410 1767888878 1548875558 1457159215 405352709 -140362905 1523328035 1425424537
REM
CELL 1.54180  100.00000  100.00000  100.00000   90.00000   90.00000   90.00000
LATT -1
SFAC C  
C      1  0.4823010000000  0.4843850000000  0.5627490000000 1.0
C      1  0.5627490000000  0.4823010000000  0.4843850000000 1.0
C      1  0.4843850000000  0.5627490000000  0.4823010000000 1.0
C      1  0.5176990000000  0.5156150000000  0.5627490000000 1.0
C      1  0.5176990000000  0.4843850000000  0.4372510000000 1.0
C      1  0.4823010000000  0.5156150000000  0.4372510000000 1.0
C      1  0.4372510000000  0.5176990000000  0.4843850000000 1.0
C      1  0.4372510000000  0.4823010000000  0.5156150000000 1.0
C      1  0.5627490000000  0.5176990000000  0.5156150000000 1.0
C      1  0.5156150000000  0.4372510000000  0.4823010000000 1.0
C      1  0.5156150000000  0.5627490000000  0.5176990000000 1.0
C      1  0.4843850000000  0.4372510000000  0.5176990000000 1.0
C      1  0.4823010000000  0.4843850000000  0.4372510000000 1.0
C      1  0.5627490000000  0.4823010000000  0.5156150000000 1.0
C      1  0.4843850000000  0.5627490000000  0.5176990000000 1.0
C      1  0.5176990000000  0.5156150000000  0.4372510000000 1.0
C      1  0.5176990000000  0.4843850000000  0.5627490000000 1.0
C      1  0.4823010000000  0.5156150000000  0.5627490000000 1.0
C      1  0.4372510000000  0.5176990000000  0.5156150000000 1.0
C      1  0.4372510000000  0.4823010000000  0.4843850000000 1.0
C      1  0.5627490000000  0.5176990000000  0.4843850000000 1.0
C      1  0.5156150000000  0.4372510000000  0.5176990000000 1.0
C      1  0.5156150000000  0.5627490000000  0.4823010000000 1.0
C      1  0.4843850000000  0.4372510000000  0.4823010000000 1.0
C      1  0.4702600000000  0.4406830000000  0.5377330000000 1.0
C      1  0.5377330000000  0.4702600000000  0.4406830000000 1.0
C      1  0.4406830000000  0.5377330000000  0.4702600000000 1.0
C      1  0.5297400000000  0.5593170000000  0.5377330000000 1.0
C      1  0.5297400000000  0.4406830000000  0.4622670000000 1.0
C      1  0.4702600000000  0.5593170000000  0.4622670000000 1.0
C      1  0.4622670000000  0.5297400000000  0.4406830000000 1.0
C      1  0.4622670000000  0.4702600000000  0.5593170000000 1.0
C      1  0.5377330000000  0.5297400000000  0.5593170000000 1.0
C      1  0.5593170000000  0.4622670000000  0.4702600000000 1.0
C      1  0.5593170000000  0.5377330000000  0.5297400000000 1.0
C      1  0.4406830000000  0.4622670000000  0.5297400000000 1.0
C      1  0.4702600000000  0.4406830000000  0.4622670000000 1.0
C      1  0.5377330000000  0.4702600000000  0.5593170000000 1.0
C      1  0.4406830000000  0.5377330000000  0.5297400000000 1.0
C      1  0.5297400000000  0.5593170000000  0.4622670000000 1.0
C      1  0.5297400000000  0.4406830000000  0.5377330000000 1.0
C      1  0.4702600000000  0.5593170000000  0.5377330000000 1.0
C      1  0.4622670000000  0.5297400000000  0.5593170000000 1.0
C      1  0.4622670000000  0.4702600000000  0.4406830000000 1.0
C      1  0.5377330000000  0.5297400000000  0.4406830000000 1.0
C      1  0.5593170000000  0.4622670000000  0.5297400000000 1.0
C      1  0.5593170000000  0.5377330000000  0.4702600000000 1.0
C      1  0.4406830000000  0.4622670000000  0.4702600000000 1.0
C      1  0.4583030000000  0.5069940000000  0.4848110000000 1.0
C      1  0.4848110000000  0.4583030000000  0.5069940000000 1.0
C      1  0.5069940000000  0.4848110000000  0.4583030000000 1.0
C      1  0.5416970000000  0.4930060000000  0.4848110000000 1.0
C      1  0.5416970000000  0.5069940000000  0.5151890000000 1.0
C      1  0.4583030000000  0.4930060000000  0.5151890000000 1.0
C      1  0.5151890000000  0.5416970000000  0.5069940000000 1.0
C      1  0.5151890000000  0.4583030000000  0.4930060000000 1.0
C      1  0.4848110000000  0.5416970000000  0.4930060000000 1.0
C      1  0.4930060000000  0.5151890000000  0.4583030000000 1.0
C      1  0.4930060000000  0.4848110000000  0.5416970000000 1.0
C      1  0.5069940000000  0.5151890000000  0.5416970000000 1.0
C      1  0.4583030000000  0.5069940000000  0.5151890000000 1.0
C      1  0.4848110000000  0.4583030000000  0.4930060000000 1.0
C      1  0.5069940000000  0.4848110000000  0.5416970000000 1.0
C      1  0.5416970000000  0.4930060000000  0.5151890000000 1.0
C      1  0.5416970000000  0.5069940000000  0.4848110000000 1.0
C      1  0.4583030000000  0.4930060000000  0.4848110000000 1.0
C      1  0.5151890000000  0.5416970000000  0.4930060000000 1.0
C      1  0.5151890000000  0.4583030000000  0.5069940000000 1.0
C      1  0.4848110000000  0.5416970000000  0.5069940000000 1.0
C      1  0.4930060000000  0.5151890000000  0.5416970000000 1.0
C      1  0.4930060000000  0.4848110000000  0.4583030000000 1.0
C      1  0.5069940000000  0.5151890000000  0.4583030000000 1.0
C      1  0.5417850000000  0.5561700000000  0.5313270000000 1.0
C      1  0.5313270000000  0.5417850000000  0.5561700000000 1.0
C      1  0.5561700000000  0.5313270000000  0.5417850000000 1.0
C      1  0.4582150000000  0.4438300000000  0.5313270000000 1.0
C      1  0.4582150000000  0.5561700000000  0.4686730000000 1.0
C      1  0.5417850000000  0.4438300000000  0.4686730000000 1.0
C      1  0.4686730000000  0.4582150000000  0.5561700000000 1.0
C      1  0.4686730000000  0.5417850000000  0.4438300000000 1.0
C      1  0.5313270000000  0.4582150000000  0.4438300000000 1.0
C      1  0.4438300000000  0.4686730000000  0.5417850000000 1.0
C      1  0.4438300000000  0.5313270000000  0.4582150000000 1.0
C      1  0.5561700000000  0.4686730000000  0.4582150000000 1.0
C      1  0.5417850000000  0.5561700000000  0.4686730000000 1.0
C      1  0.5313270000000  0.5417850000000  0.4438300000000 1.0
C      1  0.5561700000000  0.5313270000000  0.4582150000000 1.0
C      1  0.4582150000000  0.4438300000000  0.4686730000000 1.0
C      1  0.4582150000000  0.5561700000000  0.5313270000000 1.0
C      1  0.5417850000000  0.4438300000000  0.5313270000000 1.0
C      1  0.4686730000000  0.4582150000000  0.4438300000000 1.0
C      1  0.4686730000000  0.5417850000000  0.5561700000000 1.0
C      1  0.5313270000000  0.4582150000000  0.5561700000000 1.0
C      1  0.4438300000000  0.4686730000000  0.4582150000000 1.0
C      1  0.4438300000000  0.5313270000000  0.5417850000000 1.0
C      1  0.5561700000000  0.4686730000000  0.5417850000000 1.0
C      1  0.4608760000000  0.5061390000000  0.4333210000000 1.0
C      1  0.4333210000000  0.4608760000000  0.5061390000000 1.0
C      1  0.5061390000000  0.4333210000000  0.4608760000000 1.0
C      1  0.5391240000000  0.4938610000000  0.4333210000000 1.0
C      1  0.5391240000000  0.5061390000000  0.5666790000000 1.0
C      1  0.4608760000000  0.4938610000000  0.5666790000000 1.0
C      1  0.5666790000000  0.5391240000000  0.5061390000000 1.0
C      1  0.5666790000000  0.4608760000000  0.4938610000000 1.0
C      1  0.4333210000000  0.5391240000000  0.4938610000000 1.0
C      1  0.4938610000000  0.5666790000000  0.4608760000000 1.0
C      1  0.4938610000000  0.4333210000000  0.5391240000000 1.0
C      1  0.5061390000000  0.5666790000000  0.5391240000000 1.0
C      1  0.4608760000000  0.5061390000000  0.5666790000000 1.0
C      1  0.4333210000000  0.4608760000000  0.4938610000000 1.0
C      1  0.5061390000000  0.4333210000000  0.5391240000000 1.0
C      1  0.5391240000000  0.4938610000000  0.5666790000000 1.0
C      1  0.5391240000000  0.5061390000000  0.4333210000000 1.0
C      1  0.4608760000000  0.4938610000000  0.4333210000000 1.0
C      1  0.5666790000000  0.5391240000000  0.4938610000000 1.0
C      1  0.5666790000000  0.4608760000000  0.5061390000000 1.0
C      1  0.4333210000000  0.5391240000000  0.5061390000000 1.0
C      1  0.4938610000000  0.5666790000000  0.5391240000000 1.0
C      1  0.4938610000000  0.4333210000000  0.4608760000000 1.0
C      1  0.5061390000000  0.5666790000000  0.4608760000000 1.0
C      1  0.4683210000000  0.4820480000000  0.5647070000000 1.0
C      1  0.5647070000000  0.4683210000000  0.4820480000000 1.0
C      1  0.4820480000000  0.5647070000000  0.4683210000000 1.0
C      1  0.5316790000000  0.5179520000000  0.5647070000000 1.0
C      1  0.5316790000000  0.4820480000000  0.4352930000000 1.0
C      1  0.4683210000000  0.5179520000000  0.4352930000000 1.0
C      1  0.4352930000000  0.5316790000000  0.4820480000000 1.0
C      1  0.4352930000000  0.4683210000000  0.5179520000000 1.0
C      1  0.5647070000000  0.5316790000000  0.5179520000000 1.0
C      1  0.5179520000000  0.4352930000000  0.4683210000000 1.0
C      1  0.5179520000000  0.5647070000000  0.5316790000000 1.0
C      1  0.4820480000000  0.4352930000000  0.5316790000000 1.0
C      1  0.4683210000000  0.4820480000000  0.4352930000000 1.0
C      1  0.5647070000000  0.4683210000000  0.5179520000000 1.0
C      1  0.4820480000000  0.5647070000000  0.5316790000000 1.0
C      1  0.5316790000000  0.5179520000000  0.4352930000000 1.0
C      1  0.5316790000000  0.4820480000000  0.5647070000000 1.0
C      1  0.4683210000000  0.5179520000000  0.5647070000000 1.0
C      1  0.4352930000000  0.5316790000000  0.5179520000000 1.0
C      1  0.4352930000000  0.4683210000000  0.4820480000000 1.0
C      1  0.5647070000000  0.5316790000000  0.4820480000000 1.0
C      1  0.5179520000000  0.4352930000000  0.5316790000000 1.0
C      1  0.5179520000000  0.5647070000000  0.4683210000000 1.0
C      1  0.4820480000000  0.4352930000000  0.4683210000000 1.0
C      1  0.5521240000000  0.4501930000000  0.4707580000000 1.0
C      1  0.4707580000000  0.5521240000000  0.4501930000000 1.0
C      1  0.4501930000000  0.4707580000000  0.5521240000000 1.0
C      1  0.4478760000000  0.5498070000000  0.4707580000000 1.0
C      1  0.4478760000000  0.4501930000000  0.5292420000000 1.0
C      1  0.5521240000000  0.5498070000000  0.5292420000000 1.0
C      1  0.5292420000000  0.4478760000000  0.4501930000000 1.0
C      1  0.5292420000000  0.5521240000000  0.5498070000000 1.0
C      1  0.4707580000000  0.4478760000000  0.5498070000000 1.0
C      1  0.5498070000000  0.5292420000000  0.5521240000000 1.0
C      1  0.5498070000000  0.4707580000000  0.4478760000000 1.0
C      1  0.4501930000000  0.5292420000000  0.4478760000000 1.0
C      1  0.5521240000000  0.4501930000000  0.5292420000000 1.0
C      1  0.4707580000000  0.5521240000000  0.5498070000000 1.0
C      1  0.4501930000000  0.4707580000000  0.4478760000000 1.0
C      1  0.4478760000000  0.5498070000000  0.5292420000000 1.0
C      1  0.4478760000000  0.4501930000000  0.4707580000000 1.0
C      1  0.5521240000000  0.5498070000000  0.4707580000000 1.0
C      1  0.5292420000000  0.4478760000000  0.5498070000000 1.0
C      1  0.5292420000000  0.5521240000000  0.4501930000000 1.0
C      1  0.4707580000000  0.4478760000000  0.4501930000000 1.0
C      1  0.5498070000000  0.5292420000000  0.4478760000000 1.0
C      1  0.5498070000000  0.4707580000000  0.5521240000000 1.0
C      1  0.4501930000000  0.5292420000000  0.5521240000000 1.0
C      1  0.5255560000000  0.5629890000000  0.4928540000000 1.0
C      1  0.4928540000000  0.5255560000000  0.5629890000000 1.0
C      1  0.5629890000000  0.4928540000000  0.5255560000000 1.0
C      1  0.4744440000000  0.4370110000000  0.4928540000000 1.0
C      1  0.4744440000000  0.5629890000000  0.5071460000000 1.0
C      1  0.5255560000000  0.4370110000000  0.5071460000000 1.0
C      1  0.5071460000000  0.4744440000000  0.5629890000000 1.0
C      1  0.5071460000000  0.5255560000000  0.4370110000000 1.0
C      1  0.4928540000000  0.4744440000000  0.4370110000000 1.0
C      1  0.4370110000000  0.5071460000000  0.5255560000000 1.0
C      1  0.4370110000000  0.4928540000000  0.4744440000000 1.0
C      1  0.5629890000000  0.5071460000000  0.4744440000000 1.0
C      1  0.5255560000000  0.5629890000000  0.5071460000000 1.0
C      1  0.4928540000000  0.5255560000000  0.4370110000000 1.0
C      1  0.5629890000000  0.4928540000000  0.4744440000000 1.0
C      1  0.4744440000000  0.4370110000000  0.5071460000000 1.0
C      1  0.4744440000000  0.5629890000000  0.4928540000000 1.0
C      1  0.5255560000000  0.4370110000000  0.4928540000000 1.0
C      1  0.5071460000000  0.4744440000000  0.4370110000000 1.0
C      1  0.5071460000000  0.5255560000000  0.5629890000000 1.0
C      1  0.4928540000000  0.4744440000000  0.5629890000000 1.0
C      1  0.4370110000000  0.5071460000000  0.4744440000000 1.0
C      1  0.4370110000000  0.4928540000000  0.5255560000000 1.0
C      1  0.5629890000000  0.5071460000000  0.5255560000000 1.0
C      1  0.4858680000000  0.5067550000000  0.5511060000000 1.0
C      1  0.5511060000000  0.4858680000000  0.5067550000000 1.0
C      1  0.5067550000000  0.5511060000000  0.4858680000000 1.0
C      1  0.5141320000000  0.4932450000000  0.5511060000000 1.0
C      1  0.5141320000000  0.5067550000000  0.4488940000000 1.0
C      1  0.4858680000000  0.4932450000000  0.4488940000000 1.0
C      1  0.4488940000000  0.5141320000000  0.5067550000000 1.0
C      1  0.4488940000000  0.4858680000000  0.4932450000000 1.0
C      1  0.5511060000000  0.5141320000000  0.4932450000000 1.0
C      1  0.4932450000000  0.4488940000000  0.4858680000000 1.0
C      1  0.4932450000000  0.5511060000000  0.5141320000000 1.0
C      1  0.5067550000000  0.4488940000000  0.5141320000000 1.0
C      1  0.4858680000000  0.5067550000000  0.4488940000000 1.0
C      1  0.5511060000000  0.4858680000000  0.4932450000000 1.0
C      1  0.5067550000000  0.5511060000000  0.5141320000000 1.0
C      1  0.5141320000000  0.4932450000000  0.4488940000000 1.0
C      1  0.5141320000000  0.5067550000000  0.5511060000000 1.0
C      1  0.4858680000000  0.4932450000000  0.5511060000000 1.0
C      1  0.4488940000000  0.5141320000000  0.4932450000000 1.0
C      1  0.4488940000000  0.4858680000000  0.5067550000000 1.0
C      1  0.5511060000000  0.5141320000000  0.5067550000000 1.0
C      1  0.4932450000000  0.4488940000000  0.5141320000000 1.0
C      1  0.4932450000000  0.5511060000000  0.4858680000000 1.0
C      1  0.5067550000000  0.4488940000000  0.4858680000000 1.0
C      1  0.4515970000000  0.5072370000000  0.4718210000000 1.0
C      1  0.4718210000000  0.4515970000000  0.5072370000000 1.0
C      1  0.5072370000000  0.4718210000000  0.4515970000000 1.0
C      1  0.5484030000000  0.4927630000000  0.4718210000000 1.0
C      1  0.5484030000000  0.5072370000000  0.5281790000000 1.0
C      1  0.4515970000000  0.4927630000000  0.5281790000000 1.0
C      1  0.5281790000000  0.5484030000000  0.5072370000000 1.0
C      1  0.5281790000000  0.4515970000000  0.4927630000000 1.0
C      1  0.4718210000000  0.5484030000000  0.4927630000000 1.0
C      1  0.4927630000000  0.5281790000000  0.4515970000000 1.0
C      1  0.4927630000000  0.4718210000000  0.5484030000000 1.0
C      1  0.5072370000000  0.5281790000000  0.5484030000000 1.0
C      1  0.4515970000000  0.5072370000000  0.5281790000000 1.0
C      1  0.4718210000000  0.4515970000000  0.4927630000000 1.0
C      1  0.5072370000000  0.4718210000000  0.5484030000000 1.0
C      1  0.5484030000000  0.4927630000000  0.5281790000000 1.0
C      1  0.5484030000000  0.5072370000000  0.4718210000000 1.0
C      1  0.4515970000000  0.4927630000000  0.4718210000000 1.0
C      1  0.5281790000000  0.5484030000000  0.4927630000000 1.0
C      1  0.5281790000000  0.4515970000000  0.5072370000000 1.0
C      1  0.4718210000000  0.5484030000000  0.5072370000000 1.0
C      1  0.4927630000000  0.5281790000000  0.5484030000000 1.0
C      1  0.4927630000000  0.4718210000000  0.4515970000000 1.0
C      1  0.5072370000000  0.5281790000000  0.4515970000000 1.0
END
