TITL C-1892073-1155-20 -5.77892954065445e-07 1000000 -2079.39564171121 0 0 300 (C1) n - 1
REM
REM in /nfs/bkarasulu/CARBON/AIRSS/Generating-Clusters/GAP-ML-2020/Higher-Symm/Selected-Sizes/TryA-Only_Ih-Symm/Larger-Clusters
REM
REM
REM
REM
REM
REM ./C.cell (2cf5181f0f1d4d5b12b972d32ad12063)
REM
REM compiler GCC version 9.2.1 20190827 (Red Hat 9.2.1-1)
REM options -cpp -mtune=generic -march=x86-64 -g -O0 -fpre-include=/usr/include/finclude/math-vector-fortran.h
REM seed 811086789 -2118940253 -124161769 304751288 -1353498790 800116173 1182313358 -1780041252 -1457703021 199083584 1125065454 -1238231498 62104162 1142477871 268845323 1312571692 495088843 -965578688 -629049655 1489874427 696084631 -1597209863 1737282016 -2006963476 -1102055256 1878155769 -906392792 -1828090303 2021070281 1418441268 -169934333 -2103582271 -648490350
REM
CELL 1.54180  100.00000  100.00000  100.00000   90.00000   90.00000   90.00000
LATT -1
SFAC C  
C      1  0.5218950000000  0.4675540000000  0.4884550000000 1.0
C      1  0.4887660000000  0.5218160000000  0.4680800000000 1.0
C      1  0.4677110000000  0.4884110000000  0.5220500000000 1.0
C      1  0.5218850000000  0.5318600000000  0.5118260000000 1.0
C      1  0.4781340000000  0.5321490000000  0.4881870000000 1.0
C      1  0.4783150000000  0.4684660000000  0.5112320000000 1.0
C      1  0.4890300000000  0.4781620000000  0.5323560000000 1.0
C      1  0.5117910000000  0.4781360000000  0.4677870000000 1.0
C      1  0.5109770000000  0.5222050000000  0.5324530000000 1.0
C      1  0.4675730000000  0.5114500000000  0.4782890000000 1.0
C      1  0.5325090000000  0.5118800000000  0.5223520000000 1.0
C      1  0.5321220000000  0.4887440000000  0.4784180000000 1.0
C      1  0.5220040000000  0.4887890000000  0.4677730000000 1.0
C      1  0.4889170000000  0.4681890000000  0.5216240000000 1.0
C      1  0.4676420000000  0.5221330000000  0.4883510000000 1.0
C      1  0.5217720000000  0.5120790000000  0.5321170000000 1.0
C      1  0.4782510000000  0.4882420000000  0.5320380000000 1.0
C      1  0.4781910000000  0.5114070000000  0.4683260000000 1.0
C      1  0.4888620000000  0.5325110000000  0.4780730000000 1.0
C      1  0.5117440000000  0.4677220000000  0.4777990000000 1.0
C      1  0.5110940000000  0.5323540000000  0.5220030000000 1.0
C      1  0.4676390000000  0.4783760000000  0.5113370000000 1.0
C      1  0.5326700000000  0.5219410000000  0.5117360000000 1.0
C      1  0.5318200000000  0.4782030000000  0.4887590000000 1.0
C      1  0.4836610000000  0.5380720000000  0.4369230000000 1.0
C      1  0.4329770000000  0.4845880000000  0.5400750000000 1.0
C      1  0.5378510000000  0.4336160000000  0.4847120000000 1.0
C      1  0.4857780000000  0.4631410000000  0.5645760000000 1.0
C      1  0.5153530000000  0.4600600000000  0.4349330000000 1.0
C      1  0.5145840000000  0.5372350000000  0.5640770000000 1.0
C      1  0.4339380000000  0.5154810000000  0.4617310000000 1.0
C      1  0.5676070000000  0.5147850000000  0.5400380000000 1.0
C      1  0.5635080000000  0.4837910000000  0.4617010000000 1.0
C      1  0.5416600000000  0.5624380000000  0.5161110000000 1.0
C      1  0.4590080000000  0.5638470000000  0.4842510000000 1.0
C      1  0.4592090000000  0.4365100000000  0.5150550000000 1.0
C      1  0.4837900000000  0.4371030000000  0.5381890000000 1.0
C      1  0.4331790000000  0.5401940000000  0.4845340000000 1.0
C      1  0.5379920000000  0.4846970000000  0.4355690000000 1.0
C      1  0.4855490000000  0.5646400000000  0.4633000000000 1.0
C      1  0.5151990000000  0.4344880000000  0.4600970000000 1.0
C      1  0.5150120000000  0.5638030000000  0.5371990000000 1.0
C      1  0.4337210000000  0.4618230000000  0.5153510000000 1.0
C      1  0.5672150000000  0.5374680000000  0.5154690000000 1.0
C      1  0.5633310000000  0.4591160000000  0.4846980000000 1.0
C      1  0.5412680000000  0.5163560000000  0.5633320000000 1.0
C      1  0.4591020000000  0.4839410000000  0.5633840000000 1.0
C      1  0.4591660000000  0.5148280000000  0.4361050000000 1.0
C      1  0.4789980000000  0.4600520000000  0.5007090000000 1.0
C      1  0.5012380000000  0.4788390000000  0.4594190000000 1.0
C      1  0.4585800000000  0.5013140000000  0.4791910000000 1.0
C      1  0.4789270000000  0.5408200000000  0.4983190000000 1.0
C      1  0.5210230000000  0.5404100000000  0.5016360000000 1.0
C      1  0.5209540000000  0.4586000000000  0.4985880000000 1.0
C      1  0.5004400000000  0.5207030000000  0.5408820000000 1.0
C      1  0.4991090000000  0.5206610000000  0.4595240000000 1.0
C      1  0.4994830000000  0.4794920000000  0.5409590000000 1.0
C      1  0.4590780000000  0.4988940000000  0.5216570000000 1.0
C      1  0.5407310000000  0.4990940000000  0.4796090000000 1.0
C      1  0.5411370000000  0.5014360000000  0.5220630000000 1.0
C      1  0.4789030000000  0.5009390000000  0.4598670000000 1.0
C      1  0.5011490000000  0.4593320000000  0.4783470000000 1.0
C      1  0.4585480000000  0.4792180000000  0.5012700000000 1.0
C      1  0.4790050000000  0.4983730000000  0.5407130000000 1.0
C      1  0.5209180000000  0.5018840000000  0.5406690000000 1.0
C      1  0.5209700000000  0.4991400000000  0.4591470000000 1.0
C      1  0.5005950000000  0.5407720000000  0.5203880000000 1.0
C      1  0.4992190000000  0.4595650000000  0.5204330000000 1.0
C      1  0.4993460000000  0.5410530000000  0.4794030000000 1.0
C      1  0.4590920000000  0.5216820000000  0.4988910000000 1.0
C      1  0.5399780000000  0.4790390000000  0.4994970000000 1.0
C      1  0.5417420000000  0.5211350000000  0.5016550000000 1.0
C      1  0.4565330000000  0.4650370000000  0.4441240000000 1.0
C      1  0.4467160000000  0.4547500000000  0.4649050000000 1.0
C      1  0.4669490000000  0.4443360000000  0.4547410000000 1.0
C      1  0.4545230000000  0.5340080000000  0.5541220000000 1.0
C      1  0.5450580000000  0.5360260000000  0.4447350000000 1.0
C      1  0.5461900000000  0.4663010000000  0.5548040000000 1.0
C      1  0.4440300000000  0.5442200000000  0.5339330000000 1.0
C      1  0.5556170000000  0.5456630000000  0.4649420000000 1.0
C      1  0.5562500000000  0.4554840000000  0.5345160000000 1.0
C      1  0.4653240000000  0.5542320000000  0.5441950000000 1.0
C      1  0.5350420000000  0.5564020000000  0.4553890000000 1.0
C      1  0.5352190000000  0.4462490000000  0.5452840000000 1.0
C      1  0.4564270000000  0.4442050000000  0.4650080000000 1.0
C      1  0.4467740000000  0.4650130000000  0.4546370000000 1.0
C      1  0.4670380000000  0.4547550000000  0.4443500000000 1.0
C      1  0.4546550000000  0.5541200000000  0.5340640000000 1.0
C      1  0.5454620000000  0.4459460000000  0.5349120000000 1.0
C      1  0.5457280000000  0.5560630000000  0.4652710000000 1.0
C      1  0.4439690000000  0.5339590000000  0.5441720000000 1.0
C      1  0.5566420000000  0.4658880000000  0.5447080000000 1.0
C      1  0.5553050000000  0.5355950000000  0.4546420000000 1.0
C      1  0.4652040000000  0.5441320000000  0.5543520000000 1.0
C      1  0.5355770000000  0.4562650000000  0.5554270000000 1.0
C      1  0.5347020000000  0.5462440000000  0.4453080000000 1.0
C      1  0.5080910000000  0.5255140000000  0.5688940000000 1.0
C      1  0.5691650000000  0.5078870000000  0.5279530000000 1.0
C      1  0.5299690000000  0.5657940000000  0.5094220000000 1.0
C      1  0.5085920000000  0.4720560000000  0.4323290000000 1.0
C      1  0.4922420000000  0.4749340000000  0.5691980000000 1.0
C      1  0.4906540000000  0.5264730000000  0.4325240000000 1.0
C      1  0.5675710000000  0.4905820000000  0.4735000000000 1.0
C      1  0.4313500000000  0.4914460000000  0.5279900000000 1.0
C      1  0.4308350000000  0.5085950000000  0.4737310000000 1.0
C      1  0.5257970000000  0.4305980000000  0.4915900000000 1.0
C      1  0.4712190000000  0.4334320000000  0.5084690000000 1.0
C      1  0.4707510000000  0.5668170000000  0.4909650000000 1.0
C      1  0.5085260000000  0.5685710000000  0.5254570000000 1.0
C      1  0.5700090000000  0.5254520000000  0.5084780000000 1.0
C      1  0.5295030000000  0.5096450000000  0.5662990000000 1.0
C      1  0.5083150000000  0.4318810000000  0.4720180000000 1.0
C      1  0.4921200000000  0.5692450000000  0.4750410000000 1.0
C      1  0.4906610000000  0.4326980000000  0.5265230000000 1.0
C      1  0.5664150000000  0.4710500000000  0.4913780000000 1.0
C      1  0.4314680000000  0.5281070000000  0.4913710000000 1.0
C      1  0.4306970000000  0.4738390000000  0.5084600000000 1.0
C      1  0.5262270000000  0.4916280000000  0.4315800000000 1.0
C      1  0.4712710000000  0.5083430000000  0.4331610000000 1.0
C      1  0.4707610000000  0.4907100000000  0.5665430000000 1.0
C      1  0.4350510000000  0.5053840000000  0.5227650000000 1.0
C      1  0.5232230000000  0.4343550000000  0.5057790000000 1.0
C      1  0.5050450000000  0.5238850000000  0.4352310000000 1.0
C      1  0.4345270000000  0.4943700000000  0.4762600000000 1.0
C      1  0.5649790000000  0.4940750000000  0.5227390000000 1.0
C      1  0.5648540000000  0.5050030000000  0.4761930000000 1.0
C      1  0.5249400000000  0.5636290000000  0.4952390000000 1.0
C      1  0.4756110000000  0.5641230000000  0.5050860000000 1.0
C      1  0.4768450000000  0.4360830000000  0.4944950000000 1.0
C      1  0.5064180000000  0.4788170000000  0.5666140000000 1.0
C      1  0.4946090000000  0.4773040000000  0.4356160000000 1.0
C      1  0.4938820000000  0.5215540000000  0.5665020000000 1.0
C      1  0.4350840000000  0.5228570000000  0.5053210000000 1.0
C      1  0.5234900000000  0.5058730000000  0.4348280000000 1.0
C      1  0.5050840000000  0.4353550000000  0.5238950000000 1.0
C      1  0.4344640000000  0.4763620000000  0.4942490000000 1.0
C      1  0.5659720000000  0.5230910000000  0.4943320000000 1.0
C      1  0.5638690000000  0.4766270000000  0.5054060000000 1.0
C      1  0.5247850000000  0.4954310000000  0.5638750000000 1.0
C      1  0.4754590000000  0.5049330000000  0.5640260000000 1.0
C      1  0.4769790000000  0.4944430000000  0.4359780000000 1.0
C      1  0.5063100000000  0.5666780000000  0.4788880000000 1.0
C      1  0.4943840000000  0.4354560000000  0.4772560000000 1.0
C      1  0.4942150000000  0.5662860000000  0.5215810000000 1.0
C      1  0.4337390000000  0.5296490000000  0.4621620000000 1.0
C      1  0.4603630000000  0.4369710000000  0.5293450000000 1.0
C      1  0.5296070000000  0.4611730000000  0.4351700000000 1.0
C      1  0.4331170000000  0.4703470000000  0.5387610000000 1.0
C      1  0.5635110000000  0.4695780000000  0.4622020000000 1.0
C      1  0.5676460000000  0.5290320000000  0.5388650000000 1.0
C      1  0.4604130000000  0.5635360000000  0.4698130000000 1.0
C      1  0.5401600000000  0.5624260000000  0.5305930000000 1.0
C      1  0.5376010000000  0.4338330000000  0.4705350000000 1.0
C      1  0.5282210000000  0.5354230000000  0.5634290000000 1.0
C      1  0.4695500000000  0.5371170000000  0.4369150000000 1.0
C      1  0.4721530000000  0.4648170000000  0.5637190000000 1.0
C      1  0.4334950000000  0.4622440000000  0.5295100000000 1.0
C      1  0.4601370000000  0.5291550000000  0.4363880000000 1.0
C      1  0.5294350000000  0.4344170000000  0.4613110000000 1.0
C      1  0.4334220000000  0.5388850000000  0.4702860000000 1.0
C      1  0.5633900000000  0.4603900000000  0.4704240000000 1.0
C      1  0.5673860000000  0.5371670000000  0.5296180000000 1.0
C      1  0.4606740000000  0.4695220000000  0.5627790000000 1.0
C      1  0.5397970000000  0.5308120000000  0.5629530000000 1.0
C      1  0.5376350000000  0.4705460000000  0.4353490000000 1.0
C      1  0.5286720000000  0.5631120000000  0.5353780000000 1.0
C      1  0.4696170000000  0.4373720000000  0.5375000000000 1.0
C      1  0.4719240000000  0.5640060000000  0.4650870000000 1.0
C      1  0.5186570000000  0.5307590000000  0.4354910000000 1.0
C      1  0.4323170000000  0.5187410000000  0.5291320000000 1.0
C      1  0.5298490000000  0.4352390000000  0.5195050000000 1.0
C      1  0.5200420000000  0.4716190000000  0.5661650000000 1.0
C      1  0.4814980000000  0.4706970000000  0.4326730000000 1.0
C      1  0.4803560000000  0.5288710000000  0.5658840000000 1.0
C      1  0.4355340000000  0.4806450000000  0.4696110000000 1.0
C      1  0.5677790000000  0.4807170000000  0.5290040000000 1.0
C      1  0.5648190000000  0.5189070000000  0.4696080000000 1.0
C      1  0.5308690000000  0.5657840000000  0.4816950000000 1.0
C      1  0.4696720000000  0.5656120000000  0.5186980000000 1.0
C      1  0.4706620000000  0.4328780000000  0.4810860000000 1.0
C      1  0.5189620000000  0.4357890000000  0.5304660000000 1.0
C      1  0.4323490000000  0.5292240000000  0.5186720000000 1.0
C      1  0.5297900000000  0.5198670000000  0.4350520000000 1.0
C      1  0.5197520000000  0.5663670000000  0.4714710000000 1.0
C      1  0.4812440000000  0.4325920000000  0.4707360000000 1.0
C      1  0.4806740000000  0.5657090000000  0.5289960000000 1.0
C      1  0.4354840000000  0.4697440000000  0.4805010000000 1.0
C      1  0.5654090000000  0.5298100000000  0.4806330000000 1.0
C      1  0.5671530000000  0.4702130000000  0.5185960000000 1.0
C      1  0.5309490000000  0.4819760000000  0.5656200000000 1.0
C      1  0.4694090000000  0.5185090000000  0.5655870000000 1.0
C      1  0.4708860000000  0.4809980000000  0.4327880000000 1.0
C      1  0.4769490000000  0.5411370000000  0.5611350000000 1.0
C      1  0.5634070000000  0.4774480000000  0.5416440000000 1.0
C      1  0.5431130000000  0.5611750000000  0.4777680000000 1.0
C      1  0.4784410000000  0.4581090000000  0.4374980000000 1.0
C      1  0.5235660000000  0.4592670000000  0.5617670000000 1.0
C      1  0.5222600000000  0.5428640000000  0.4402330000000 1.0
C      1  0.5602220000000  0.5228910000000  0.4575710000000 1.0
C      1  0.4371790000000  0.5222270000000  0.5415590000000 1.0
C      1  0.4407800000000  0.4771390000000  0.4576480000000 1.0
C      1  0.5420060000000  0.4400960000000  0.5228950000000 1.0
C      1  0.4583870000000  0.4376290000000  0.4770510000000 1.0
C      1  0.4575170000000  0.5602930000000  0.5221880000000 1.0
C      1  0.4771960000000  0.5608460000000  0.5412080000000 1.0
C      1  0.5609580000000  0.5420940000000  0.4771980000000 1.0
C      1  0.5431400000000  0.4784370000000  0.5603810000000 1.0
C      1  0.4782470000000  0.4373440000000  0.4581220000000 1.0
C      1  0.5230080000000  0.5622900000000  0.4589470000000 1.0
C      1  0.5227770000000  0.4407590000000  0.5424200000000 1.0
C      1  0.5624440000000  0.4578320000000  0.5223780000000 1.0
C      1  0.4372630000000  0.5416280000000  0.5221890000000 1.0
C      1  0.4406780000000  0.4577570000000  0.4770140000000 1.0
C      1  0.5419730000000  0.5236380000000  0.4393490000000 1.0
C      1  0.4585680000000  0.4770010000000  0.4374610000000 1.0
C      1  0.4573040000000  0.5220540000000  0.5602100000000 1.0
C      1  0.5080910000000  0.4887880000000  0.5778730000000 1.0
C      1  0.5782350000000  0.5067130000000  0.4829370000000 1.0
C      1  0.4863460000000  0.5746960000000  0.5007910000000 1.0
C      1  0.5070750000000  0.5167720000000  0.4220550000000 1.0
C      1  0.4922250000000  0.5117080000000  0.5778710000000 1.0
C      1  0.4994280000000  0.4903750000000  0.4283540000000 1.0
C      1  0.5721030000000  0.4987370000000  0.5095270000000 1.0
C      1  0.4213360000000  0.4920280000000  0.4830390000000 1.0
C      1  0.4276970000000  0.5004400000000  0.5097670000000 1.0
C      1  0.4895640000000  0.4285880000000  0.4998570000000 1.0
C      1  0.5157110000000  0.4215910000000  0.5082960000000 1.0
C      1  0.5144250000000  0.5742920000000  0.4998420000000 1.0
C      1  0.5081640000000  0.5778370000000  0.4889600000000 1.0
C      1  0.5715590000000  0.4892520000000  0.5000600000000 1.0
C      1  0.4860870000000  0.5006500000000  0.5746700000000 1.0
C      1  0.5069230000000  0.4219880000000  0.5171770000000 1.0
C      1  0.4925390000000  0.5777560000000  0.5118580000000 1.0
C      1  0.4991020000000  0.4281450000000  0.4903700000000 1.0
C      1  0.5787740000000  0.5156330000000  0.4916790000000 1.0
C      1  0.4213140000000  0.4831960000000  0.4918680000000 1.0
C      1  0.4277060000000  0.5098920000000  0.5003280000000 1.0
C      1  0.4897960000000  0.4998130000000  0.4286220000000 1.0
C      1  0.5161280000000  0.5081400000000  0.4218350000000 1.0
C      1  0.5141770000000  0.4998320000000  0.5745370000000 1.0
C      1  0.4390260000000  0.4914510000000  0.5505400000000 1.0
C      1  0.5483550000000  0.4398360000000  0.4915610000000 1.0
C      1  0.4899100000000  0.5484900000000  0.4439100000000 1.0
C      1  0.4400880000000  0.5085960000000  0.4512370000000 1.0
C      1  0.5612640000000  0.5081160000000  0.5504930000000 1.0
C      1  0.5569450000000  0.4905920000000  0.4513830000000 1.0
C      1  0.5520930000000  0.5566240000000  0.5089760000000 1.0
C      1  0.4484640000000  0.5586920000000  0.4916740000000 1.0
C      1  0.4486490000000  0.4425680000000  0.5081140000000 1.0
C      1  0.4911980000000  0.4522690000000  0.5575770000000 1.0
C      1  0.5084740000000  0.4496100000000  0.4410420000000 1.0
C      1  0.5092990000000  0.5479840000000  0.5567760000000 1.0
C      1  0.4391110000000  0.5506540000000  0.4914850000000 1.0
C      1  0.5483360000000  0.4911650000000  0.4424800000000 1.0
C      1  0.4903590000000  0.4438560000000  0.5485530000000 1.0
C      1  0.4399300000000  0.4513290000000  0.5084840000000 1.0
C      1  0.5609380000000  0.5479780000000  0.5087330000000 1.0
C      1  0.5570660000000  0.4486000000000  0.4914010000000 1.0
C      1  0.5517800000000  0.5088200000000  0.5583430000000 1.0
C      1  0.4485090000000  0.4913970000000  0.5584180000000 1.0
C      1  0.4486760000000  0.5079410000000  0.4423590000000 1.0
C      1  0.4906820000000  0.5574660000000  0.4523860000000 1.0
C      1  0.5084740000000  0.4408030000000  0.4496780000000 1.0
C      1  0.5095980000000  0.5566350000000  0.5479630000000 1.0
C      1  0.5516140000000  0.5162780000000  0.4941100000000 1.0
C      1  0.4933470000000  0.5508130000000  0.5156030000000 1.0
C      1  0.5173120000000  0.4940820000000  0.5504650000000 1.0
C      1  0.5492660000000  0.4819390000000  0.5081860000000 1.0
C      1  0.4484420000000  0.4838440000000  0.4939450000000 1.0
C      1  0.4499770000000  0.5181370000000  0.5075610000000 1.0
C      1  0.4923150000000  0.4503480000000  0.4817080000000 1.0
C      1  0.5061880000000  0.4491000000000  0.5161090000000 1.0
C      1  0.5069080000000  0.5508260000000  0.4842970000000 1.0
C      1  0.5163580000000  0.5064170000000  0.4489890000000 1.0
C      1  0.4827980000000  0.5060530000000  0.5505610000000 1.0
C      1  0.4817810000000  0.4920870000000  0.4506980000000 1.0
C      1  0.5499200000000  0.4923950000000  0.5186300000000 1.0
C      1  0.4932080000000  0.5157360000000  0.5508660000000 1.0
C      1  0.5174450000000  0.5502440000000  0.4938180000000 1.0
C      1  0.5510800000000  0.5062120000000  0.4839480000000 1.0
C      1  0.4484610000000  0.4940020000000  0.4838000000000 1.0
C      1  0.4499660000000  0.5075750000000  0.5181120000000 1.0
C      1  0.4922980000000  0.4818570000000  0.4504490000000 1.0
C      1  0.5062020000000  0.5163650000000  0.4491580000000 1.0
C      1  0.5069260000000  0.4843770000000  0.5508490000000 1.0
C      1  0.5162240000000  0.4486090000000  0.5059870000000 1.0
C      1  0.4828430000000  0.5506040000000  0.5060170000000 1.0
C      1  0.4818440000000  0.4507630000000  0.4919770000000 1.0
C      1  0.4842860000000  0.4297530000000  0.5137390000000 1.0
C      1  0.5134340000000  0.4852290000000  0.4288150000000 1.0
C      1  0.4836810000000  0.5720390000000  0.4865160000000 1.0
C      1  0.5170830000000  0.5712820000000  0.5140240000000 1.0
C      1  0.5130340000000  0.4282270000000  0.4851880000000 1.0
C      1  0.4836700000000  0.4863530000000  0.5718770000000 1.0
C      1  0.4279800000000  0.4865530000000  0.5148180000000 1.0
C      1  0.4843480000000  0.5136650000000  0.4295950000000 1.0
C      1  0.4280860000000  0.5149520000000  0.4864430000000 1.0
C      1  0.5703550000000  0.4840600000000  0.4862130000000 1.0
C      1  0.5724440000000  0.5126320000000  0.5147160000000 1.0
C      1  0.5166210000000  0.5140890000000  0.5716370000000 1.0
END
