TITL C-19564-5806-4 6.5978549601804 1000000 -3611.14352377 0 0 520 (C1) n - 1
REM
REM in /rds/project/t2_vol4/rds-t2-cs072/BORA/CARBON/from-Arr/AIRSS/Generating-Clusters/GAP-ML-2020/Higher-Symm/Selected-Sizes/Larger-Clusters/Only-C240
REM
REM
REM
REM
REM
REM ./C.cell (db1db5b03a21c153a00b653f6831bbfd)
REM AIRSS Version 0.9.1 bugfix July 2018 build 013d7b7c2542+ Fri, 06 Jul 2018 19:26:36 +0100
REM compiler GCC version 9.3.0
REM options -cpp -mtune=generic -march=x86-64 -g -O0
REM seed 1355758913 437252954 -131336375 1470391435 -350548474 -1356210429 703884767 1959054327 -263410597 1876504906 -1848498126 465078865 1944018771 -229190336 -1227280350 -1244831890 -19702721 614874259 892479919 -744668682 1701530399 -275234942 -1336499717 -391215719 -238105161 2075752326 -1098651983 680051075 -247570776 421077376 -1044826660 1858422010 -857029412
REM
CELL 1.54180  100.00000  100.00000  100.00000   90.00000   90.00000   90.00000
LATT -1
SFAC C  
C      1  0.4276230000000  0.5469630000000  0.5027380000000 1.0
C      1  0.5030940000000  0.4274340000000  0.5466840000000 1.0
C      1  0.5468110000000  0.5030030000000  0.4272850000000 1.0
C      1  0.4276060000000  0.4534270000000  0.4972160000000 1.0
C      1  0.5727870000000  0.4537720000000  0.5027620000000 1.0
C      1  0.5727010000000  0.5470640000000  0.4971460000000 1.0
C      1  0.5061220000000  0.5704890000000  0.4545560000000 1.0
C      1  0.4970080000000  0.5729620000000  0.5468280000000 1.0
C      1  0.4974620000000  0.4273430000000  0.4535420000000 1.0
C      1  0.5469860000000  0.4973880000000  0.5724730000000 1.0
C      1  0.4538470000000  0.4975190000000  0.4274520000000 1.0
C      1  0.4536570000000  0.5033270000000  0.5726620000000 1.0
C      1  0.4275640000000  0.5033240000000  0.5466190000000 1.0
C      1  0.5061070000000  0.5457750000000  0.4298230000000 1.0
C      1  0.5469520000000  0.4276280000000  0.5028080000000 1.0
C      1  0.4276560000000  0.4975620000000  0.4533900000000 1.0
C      1  0.5725640000000  0.5035490000000  0.4533440000000 1.0
C      1  0.5729470000000  0.4976230000000  0.5464200000000 1.0
C      1  0.5032070000000  0.4535290000000  0.5725810000000 1.0
C      1  0.4969840000000  0.5467120000000  0.5727110000000 1.0
C      1  0.4973380000000  0.4532810000000  0.4274510000000 1.0
C      1  0.5469510000000  0.5730120000000  0.4975900000000 1.0
C      1  0.4535650000000  0.4273430000000  0.4973470000000 1.0
C      1  0.4538040000000  0.5729070000000  0.5027670000000 1.0
C      1  0.5684250000000  0.4758170000000  0.5132700000000 1.0
C      1  0.5142490000000  0.5674230000000  0.4769460000000 1.0
C      1  0.4757450000000  0.5134270000000  0.5683140000000 1.0
C      1  0.5683700000000  0.5253490000000  0.4863090000000 1.0
C      1  0.4318570000000  0.5249730000000  0.5133990000000 1.0
C      1  0.4319490000000  0.4755240000000  0.4867000000000 1.0
C      1  0.5137670000000  0.4317360000000  0.5248080000000 1.0
C      1  0.4867730000000  0.4315990000000  0.4754340000000 1.0
C      1  0.4869190000000  0.5684320000000  0.5246350000000 1.0
C      1  0.4758320000000  0.4869270000000  0.4319400000000 1.0
C      1  0.5248640000000  0.4869330000000  0.5681260000000 1.0
C      1  0.5247370000000  0.5125220000000  0.4321760000000 1.0
C      1  0.5682380000000  0.5141010000000  0.4751510000000 1.0
C      1  0.5136140000000  0.4756500000000  0.5681760000000 1.0
C      1  0.4757750000000  0.5684300000000  0.5133250000000 1.0
C      1  0.5685340000000  0.4870210000000  0.5245200000000 1.0
C      1  0.4319170000000  0.5136250000000  0.5245990000000 1.0
C      1  0.4318950000000  0.4868260000000  0.4753570000000 1.0
C      1  0.5141590000000  0.5233660000000  0.4329090000000 1.0
C      1  0.4870040000000  0.4755250000000  0.4319380000000 1.0
C      1  0.4869080000000  0.5245900000000  0.5683310000000 1.0
C      1  0.4754700000000  0.4316050000000  0.4866980000000 1.0
C      1  0.5248640000000  0.5681920000000  0.4877870000000 1.0
C      1  0.5250530000000  0.4318100000000  0.5135320000000 1.0
C      1  0.4873430000000  0.5031610000000  0.5875680000000 1.0
C      1  0.5876210000000  0.4874990000000  0.5028880000000 1.0
C      1  0.5036560000000  0.5871420000000  0.4872570000000 1.0
C      1  0.4876200000000  0.4971220000000  0.4127300000000 1.0
C      1  0.5133030000000  0.4970880000000  0.5874850000000 1.0
C      1  0.5131590000000  0.5030040000000  0.4126160000000 1.0
C      1  0.5876140000000  0.5135320000000  0.4967200000000 1.0
C      1  0.4126300000000  0.5132940000000  0.5030750000000 1.0
C      1  0.4127220000000  0.4871990000000  0.4969190000000 1.0
C      1  0.5035240000000  0.4124410000000  0.5131080000000 1.0
C      1  0.4971180000000  0.4124110000000  0.4871660000000 1.0
C      1  0.4973220000000  0.5876460000000  0.5130200000000 1.0
C      1  0.4876260000000  0.5875550000000  0.5030050000000 1.0
C      1  0.5875110000000  0.5036670000000  0.4868660000000 1.0
C      1  0.5034540000000  0.4872000000000  0.5875340000000 1.0
C      1  0.4872570000000  0.4124420000000  0.4970540000000 1.0
C      1  0.5132700000000  0.5877440000000  0.4972930000000 1.0
C      1  0.5133780000000  0.4125360000000  0.5032170000000 1.0
C      1  0.5877630000000  0.4973380000000  0.5127760000000 1.0
C      1  0.4126670000000  0.5034120000000  0.5129450000000 1.0
C      1  0.4126060000000  0.4970510000000  0.4870080000000 1.0
C      1  0.5035270000000  0.5130190000000  0.4132370000000 1.0
C      1  0.4973440000000  0.4871220000000  0.4126920000000 1.0
C      1  0.4971850000000  0.5130340000000  0.5875970000000 1.0
C      1  0.4543170000000  0.5056970000000  0.5161840000000 1.0
C      1  0.5167320000000  0.4543980000000  0.5056720000000 1.0
C      1  0.5052800000000  0.5154740000000  0.4547670000000 1.0
C      1  0.4543750000000  0.4947490000000  0.4836800000000 1.0
C      1  0.5459580000000  0.4949920000000  0.5164050000000 1.0
C      1  0.5455640000000  0.5065550000000  0.4831950000000 1.0
C      1  0.5164730000000  0.5458540000000  0.4954010000000 1.0
C      1  0.4839750000000  0.5458710000000  0.5054800000000 1.0
C      1  0.4836890000000  0.4541830000000  0.4946000000000 1.0
C      1  0.5055800000000  0.4839520000000  0.5457280000000 1.0
C      1  0.4950840000000  0.4837430000000  0.4544770000000 1.0
C      1  0.4948800000000  0.5162900000000  0.5460630000000 1.0
C      1  0.4543120000000  0.5167480000000  0.5054800000000 1.0
C      1  0.5163420000000  0.5049440000000  0.4544500000000 1.0
C      1  0.5058400000000  0.4542950000000  0.5165280000000 1.0
C      1  0.4544770000000  0.4838780000000  0.4946830000000 1.0
C      1  0.5456800000000  0.5176150000000  0.4940020000000 1.0
C      1  0.5457610000000  0.4841210000000  0.5054200000000 1.0
C      1  0.5165060000000  0.4949610000000  0.5456590000000 1.0
C      1  0.4840500000000  0.5054070000000  0.5460460000000 1.0
C      1  0.4841040000000  0.4947900000000  0.4545120000000 1.0
C      1  0.5053500000000  0.5455400000000  0.4848640000000 1.0
C      1  0.4945760000000  0.4541610000000  0.4836940000000 1.0
C      1  0.4949740000000  0.5459970000000  0.5163970000000 1.0
C      1  0.5392070000000  0.5099820000000  0.4369550000000 1.0
C      1  0.4370150000000  0.5394950000000  0.5101890000000 1.0
C      1  0.5104680000000  0.4369080000000  0.5392610000000 1.0
C      1  0.5394000000000  0.4902690000000  0.5629140000000 1.0
C      1  0.4612950000000  0.4902590000000  0.4370190000000 1.0
C      1  0.4612680000000  0.5102720000000  0.5630080000000 1.0
C      1  0.4371530000000  0.4609620000000  0.4900380000000 1.0
C      1  0.5632660000000  0.4612860000000  0.5100080000000 1.0
C      1  0.5632860000000  0.5396990000000  0.4895770000000 1.0
C      1  0.5131830000000  0.5602970000000  0.4631300000000 1.0
C      1  0.4900850000000  0.5633270000000  0.5392250000000 1.0
C      1  0.4900460000000  0.4367860000000  0.4609770000000 1.0
C      1  0.5395120000000  0.4370610000000  0.5102220000000 1.0
C      1  0.4372120000000  0.5103040000000  0.5390640000000 1.0
C      1  0.5131490000000  0.5371820000000  0.4400180000000 1.0
C      1  0.5393610000000  0.5634750000000  0.4903660000000 1.0
C      1  0.4609900000000  0.4368020000000  0.4899560000000 1.0
C      1  0.4612490000000  0.5633710000000  0.5100670000000 1.0
C      1  0.4370760000000  0.4901340000000  0.4608480000000 1.0
C      1  0.5629950000000  0.5107880000000  0.4608260000000 1.0
C      1  0.5634490000000  0.4902580000000  0.5390070000000 1.0
C      1  0.5103300000000  0.4611010000000  0.5630070000000 1.0
C      1  0.4900480000000  0.5390680000000  0.5630680000000 1.0
C      1  0.4902090000000  0.4608530000000  0.4369950000000 1.0
C      1  0.4508260000000  0.4393550000000  0.5184020000000 1.0
C      1  0.5184790000000  0.4503690000000  0.4391390000000 1.0
C      1  0.4397090000000  0.5187030000000  0.4506880000000 1.0
C      1  0.4509350000000  0.5611410000000  0.4818330000000 1.0
C      1  0.5496760000000  0.5611290000000  0.5183570000000 1.0
C      1  0.5495160000000  0.4396820000000  0.4817240000000 1.0
C      1  0.5181690000000  0.5501530000000  0.5615390000000 1.0
C      1  0.4835010000000  0.5502730000000  0.4387210000000 1.0
C      1  0.4820620000000  0.4505500000000  0.5610160000000 1.0
C      1  0.4388150000000  0.4821680000000  0.5500000000000 1.0
C      1  0.5613230000000  0.4823440000000  0.4503210000000 1.0
C      1  0.5609520000000  0.5186620000000  0.5492660000000 1.0
C      1  0.4509330000000  0.5184960000000  0.4391740000000 1.0
C      1  0.5185320000000  0.4393460000000  0.4507860000000 1.0
C      1  0.4392560000000  0.4505350000000  0.5183280000000 1.0
C      1  0.4502470000000  0.4821660000000  0.5614520000000 1.0
C      1  0.5498600000000  0.5185490000000  0.5609020000000 1.0
C      1  0.5499890000000  0.4821870000000  0.4388080000000 1.0
C      1  0.5181760000000  0.5616260000000  0.5502050000000 1.0
C      1  0.4819950000000  0.4393820000000  0.5494420000000 1.0
C      1  0.4835060000000  0.5616170000000  0.4500610000000 1.0
C      1  0.4397110000000  0.5496310000000  0.4816210000000 1.0
C      1  0.5610520000000  0.4508870000000  0.4817490000000 1.0
C      1  0.5607600000000  0.5494890000000  0.5182790000000 1.0
C      1  0.4219430000000  0.4885830000000  0.5267840000000 1.0
C      1  0.5271420000000  0.4219080000000  0.4884600000000 1.0
C      1  0.4895700000000  0.5271950000000  0.4226360000000 1.0
C      1  0.4218870000000  0.5118760000000  0.4732650000000 1.0
C      1  0.5784890000000  0.5120860000000  0.5265320000000 1.0
C      1  0.5781350000000  0.4889290000000  0.4731840000000 1.0
C      1  0.5269510000000  0.5785280000000  0.5119880000000 1.0
C      1  0.4738270000000  0.5783650000000  0.4882830000000 1.0
C      1  0.4733970000000  0.4217250000000  0.5117880000000 1.0
C      1  0.4886920000000  0.4733890000000  0.5782440000000 1.0
C      1  0.5118460000000  0.4730190000000  0.4218620000000 1.0
C      1  0.5118410000000  0.5269520000000  0.5783150000000 1.0
C      1  0.4218950000000  0.5271440000000  0.4883600000000 1.0
C      1  0.5268980000000  0.4883290000000  0.4217920000000 1.0
C      1  0.4886930000000  0.4217280000000  0.5268240000000 1.0
C      1  0.4220200000000  0.4733170000000  0.5116980000000 1.0
C      1  0.5783470000000  0.5272460000000  0.5114370000000 1.0
C      1  0.5782150000000  0.4737100000000  0.4882170000000 1.0
C      1  0.5271100000000  0.5118430000000  0.5781780000000 1.0
C      1  0.4734060000000  0.4884890000000  0.5783180000000 1.0
C      1  0.4738970000000  0.5119550000000  0.4219610000000 1.0
C      1  0.4896130000000  0.5777040000000  0.4731790000000 1.0
C      1  0.5118960000000  0.4217850000000  0.4734180000000 1.0
C      1  0.5117930000000  0.5785610000000  0.5271870000000 1.0
C      1  0.5569750000000  0.4950230000000  0.4333160000000 1.0
C      1  0.4338530000000  0.5568710000000  0.4943980000000 1.0
C      1  0.4948130000000  0.4336100000000  0.5566310000000 1.0
C      1  0.5569980000000  0.5057200000000  0.5663620000000 1.0
C      1  0.4437590000000  0.5058210000000  0.4335750000000 1.0
C      1  0.4434390000000  0.4952400000000  0.5666820000000 1.0
C      1  0.4337220000000  0.4434010000000  0.5055360000000 1.0
C      1  0.5666660000000  0.4437350000000  0.4945120000000 1.0
C      1  0.5666740000000  0.5568500000000  0.5056510000000 1.0
C      1  0.4974370000000  0.5659880000000  0.4441550000000 1.0
C      1  0.5051300000000  0.5669190000000  0.5570180000000 1.0
C      1  0.5057200000000  0.4335020000000  0.4435810000000 1.0
C      1  0.5568140000000  0.4338550000000  0.4944800000000 1.0
C      1  0.4335630000000  0.4952240000000  0.5568200000000 1.0
C      1  0.4974300000000  0.5561740000000  0.4343380000000 1.0
C      1  0.5569570000000  0.5668750000000  0.5057910000000 1.0
C      1  0.4436160000000  0.4335490000000  0.5056130000000 1.0
C      1  0.4437260000000  0.5667740000000  0.4944690000000 1.0
C      1  0.4338840000000  0.5058960000000  0.4434730000000 1.0
C      1  0.5666900000000  0.4952400000000  0.4433300000000 1.0
C      1  0.5668000000000  0.5058430000000  0.5564240000000 1.0
C      1  0.4948940000000  0.4434730000000  0.5665110000000 1.0
C      1  0.5050740000000  0.5569490000000  0.5667890000000 1.0
C      1  0.5056720000000  0.4432640000000  0.4336020000000 1.0
C      1  0.5112440000000  0.4997490000000  0.5212940000000 1.0
C      1  0.5217490000000  0.5117150000000  0.4992920000000 1.0
C      1  0.4963250000000  0.5224300000000  0.5138120000000 1.0
C      1  0.5136230000000  0.5037830000000  0.4779710000000 1.0
C      1  0.4886900000000  0.5008650000000  0.5217030000000 1.0
C      1  0.4892310000000  0.4989340000000  0.4790410000000 1.0
C      1  0.5214890000000  0.4892960000000  0.5005810000000 1.0
C      1  0.4785480000000  0.4886300000000  0.4992210000000 1.0
C      1  0.4787810000000  0.5112430000000  0.5008280000000 1.0
C      1  0.4991710000000  0.4784750000000  0.4889490000000 1.0
C      1  0.5008910000000  0.4787450000000  0.5113180000000 1.0
C      1  0.5011180000000  0.5211480000000  0.4895830000000 1.0
C      1  0.5135080000000  0.5224250000000  0.4966570000000 1.0
C      1  0.5214500000000  0.4999480000000  0.5110980000000 1.0
C      1  0.4989990000000  0.5114650000000  0.5217620000000 1.0
C      1  0.5113880000000  0.4789300000000  0.5006720000000 1.0
C      1  0.4891580000000  0.5213580000000  0.5013990000000 1.0
C      1  0.4888040000000  0.4785720000000  0.4996240000000 1.0
C      1  0.5218110000000  0.5013520000000  0.4887720000000 1.0
C      1  0.4788230000000  0.4995010000000  0.4891760000000 1.0
C      1  0.4784510000000  0.5012990000000  0.5117260000000 1.0
C      1  0.4965030000000  0.4865420000000  0.4780430000000 1.0
C      1  0.5011620000000  0.5107900000000  0.4792110000000 1.0
C      1  0.5008620000000  0.4890390000000  0.5214450000000 1.0
C      1  0.4692460000000  0.4331420000000  0.5488490000000 1.0
C      1  0.5504140000000  0.4697540000000  0.4318960000000 1.0
C      1  0.4338710000000  0.5491280000000  0.4686490000000 1.0
C      1  0.4712260000000  0.5688020000000  0.4489690000000 1.0
C      1  0.5305940000000  0.5685850000000  0.5507050000000 1.0
C      1  0.5312980000000  0.4331150000000  0.4514240000000 1.0
C      1  0.5495940000000  0.5309890000000  0.5678210000000 1.0
C      1  0.4517710000000  0.5309870000000  0.4323600000000 1.0
C      1  0.4497230000000  0.4697540000000  0.5684120000000 1.0
C      1  0.4325030000000  0.4508950000000  0.5308490000000 1.0
C      1  0.5678390000000  0.4512190000000  0.4692530000000 1.0
C      1  0.5669520000000  0.5487220000000  0.5310730000000 1.0
C      1  0.4712250000000  0.5513620000000  0.4315310000000 1.0
C      1  0.5488540000000  0.4333510000000  0.4690190000000 1.0
C      1  0.4319220000000  0.4697180000000  0.5505050000000 1.0
C      1  0.4695590000000  0.4508890000000  0.5678160000000 1.0
C      1  0.5306090000000  0.5506260000000  0.5684780000000 1.0
C      1  0.5309340000000  0.4506240000000  0.4322260000000 1.0
C      1  0.5492050000000  0.5678460000000  0.5308840000000 1.0
C      1  0.4514360000000  0.4331100000000  0.5311420000000 1.0
C      1  0.4517780000000  0.5679470000000  0.4693410000000 1.0
C      1  0.4338600000000  0.5316700000000  0.4511950000000 1.0
C      1  0.5681980000000  0.4698730000000  0.4500250000000 1.0
C      1  0.5671960000000  0.5314110000000  0.5486840000000 1.0
C      1  0.4460860000000  0.4644300000000  0.5135160000000 1.0
C      1  0.5131900000000  0.4459700000000  0.4645040000000 1.0
C      1  0.4646320000000  0.5135920000000  0.4460440000000 1.0
C      1  0.4460730000000  0.5358820000000  0.4870860000000 1.0
C      1  0.5541740000000  0.5359410000000  0.5127450000000 1.0
C      1  0.5541960000000  0.4647850000000  0.4866080000000 1.0
C      1  0.5137410000000  0.5544880000000  0.5360900000000 1.0
C      1  0.4865090000000  0.5542080000000  0.4644900000000 1.0
C      1  0.4872860000000  0.4459160000000  0.5357300000000 1.0
C      1  0.4644040000000  0.4864980000000  0.5542700000000 1.0
C      1  0.5358930000000  0.4866530000000  0.4458840000000 1.0
C      1  0.5359580000000  0.5137750000000  0.5540860000000 1.0
C      1  0.4460720000000  0.5132500000000  0.4644510000000 1.0
C      1  0.5136570000000  0.4642050000000  0.4459300000000 1.0
C      1  0.4645390000000  0.4458860000000  0.5131230000000 1.0
C      1  0.4460170000000  0.4865730000000  0.5358150000000 1.0
C      1  0.5543640000000  0.5134120000000  0.5355370000000 1.0
C      1  0.5540630000000  0.4870510000000  0.4644120000000 1.0
C      1  0.5137960000000  0.5360030000000  0.5542720000000 1.0
C      1  0.4868070000000  0.4644350000000  0.5541760000000 1.0
C      1  0.4865000000000  0.5358430000000  0.4461200000000 1.0
C      1  0.4646210000000  0.5542860000000  0.4867560000000 1.0
C      1  0.5358310000000  0.4461600000000  0.4870930000000 1.0
C      1  0.5358520000000  0.5544560000000  0.5135090000000 1.0
C      1  0.4570950000000  0.4669320000000  0.5231310000000 1.0
C      1  0.5215880000000  0.4580670000000  0.4679660000000 1.0
C      1  0.4670970000000  0.5230510000000  0.4571480000000 1.0
C      1  0.4580700000000  0.5323020000000  0.4787320000000 1.0
C      1  0.5421990000000  0.5324900000000  0.5213390000000 1.0
C      1  0.5430990000000  0.4673450000000  0.4771400000000 1.0
C      1  0.5237380000000  0.5435380000000  0.5334330000000 1.0
C      1  0.4762910000000  0.5434670000000  0.4667260000000 1.0
C      1  0.4787700000000  0.4578970000000  0.5322400000000 1.0
C      1  0.4667820000000  0.4764050000000  0.5433600000000 1.0
C      1  0.5333830000000  0.4767220000000  0.4568970000000 1.0
C      1  0.5333330000000  0.5233240000000  0.5430530000000 1.0
C      1  0.4580770000000  0.5215900000000  0.4680460000000 1.0
C      1  0.5231480000000  0.4670360000000  0.4569810000000 1.0
C      1  0.4679940000000  0.4578460000000  0.5216370000000 1.0
C      1  0.4569390000000  0.4764630000000  0.5334700000000 1.0
C      1  0.5423210000000  0.5218230000000  0.5321050000000 1.0
C      1  0.5431490000000  0.4769400000000  0.4668390000000 1.0
C      1  0.5237960000000  0.5336500000000  0.5432590000000 1.0
C      1  0.4771890000000  0.4669410000000  0.5431790000000 1.0
C      1  0.4762850000000  0.5336150000000  0.4568680000000 1.0
C      1  0.4670920000000  0.5431900000000  0.4772870000000 1.0
C      1  0.5322470000000  0.4581890000000  0.4786720000000 1.0
C      1  0.5331480000000  0.5433870000000  0.5229550000000 1.0
C      1  0.4471320000000  0.4375780000000  0.5431470000000 1.0
C      1  0.5432400000000  0.4475270000000  0.4366670000000 1.0
C      1  0.4387660000000  0.5435130000000  0.4467200000000 1.0
C      1  0.4490380000000  0.5636370000000  0.4569200000000 1.0
C      1  0.5525480000000  0.5634860000000  0.5431430000000 1.0
C      1  0.5533350000000  0.4376540000000  0.4570120000000 1.0
C      1  0.5428900000000  0.5536780000000  0.5638440000000 1.0
C      1  0.4588160000000  0.5539090000000  0.4361780000000 1.0
C      1  0.4572730000000  0.4476960000000  0.5633710000000 1.0
C      1  0.4366310000000  0.4574550000000  0.5535230000000 1.0
C      1  0.5636570000000  0.4576170000000  0.4466970000000 1.0
C      1  0.5627700000000  0.5433530000000  0.5532540000000 1.0
C      1  0.4490300000000  0.5434060000000  0.4366800000000 1.0
C      1  0.5432720000000  0.4375340000000  0.4469130000000 1.0
C      1  0.4369600000000  0.4476600000000  0.5431170000000 1.0
C      1  0.4468210000000  0.4574640000000  0.5637230000000 1.0
C      1  0.5527570000000  0.5433140000000  0.5634950000000 1.0
C      1  0.5535160000000  0.4574920000000  0.4364740000000 1.0
C      1  0.5428630000000  0.5638890000000  0.5536690000000 1.0
C      1  0.4572470000000  0.4376090000000  0.5532010000000 1.0
C      1  0.4588190000000  0.5641470000000  0.4464170000000 1.0
C      1  0.4387700000000  0.5535990000000  0.4568060000000 1.0
C      1  0.5634640000000  0.4477480000000  0.4570200000000 1.0
C      1  0.5626100000000  0.5533180000000  0.5430570000000 1.0
C      1  0.5397170000000  0.5506680000000  0.4980690000000 1.0
C      1  0.4987010000000  0.5395380000000  0.5501680000000 1.0
C      1  0.5504770000000  0.4984890000000  0.5393910000000 1.0
C      1  0.5397460000000  0.4500700000000  0.5020310000000 1.0
C      1  0.4606730000000  0.4498240000000  0.4981560000000 1.0
C      1  0.4607720000000  0.5503490000000  0.5019350000000 1.0
C      1  0.4984370000000  0.4603720000000  0.4498910000000 1.0
C      1  0.5019910000000  0.4607040000000  0.5501080000000 1.0
C      1  0.5004850000000  0.5386980000000  0.4511760000000 1.0
C      1  0.5499940000000  0.5023100000000  0.4604990000000 1.0
C      1  0.4501740000000  0.5016260000000  0.5394260000000 1.0
C      1  0.4500330000000  0.4983260000000  0.4605960000000 1.0
C      1  0.5397390000000  0.4986480000000  0.5500240000000 1.0
C      1  0.4986550000000  0.5503870000000  0.5397410000000 1.0
C      1  0.5502750000000  0.5400390000000  0.4976190000000 1.0
C      1  0.5395950000000  0.5020170000000  0.4497790000000 1.0
C      1  0.4608300000000  0.4984740000000  0.4500150000000 1.0
C      1  0.4608210000000  0.5015680000000  0.5500600000000 1.0
C      1  0.4982240000000  0.4497660000000  0.4606590000000 1.0
C      1  0.5004830000000  0.5491390000000  0.4616280000000 1.0
C      1  0.5022350000000  0.4498910000000  0.5395530000000 1.0
C      1  0.5502870000000  0.4609130000000  0.5017830000000 1.0
C      1  0.4499880000000  0.5397710000000  0.5020720000000 1.0
C      1  0.4500880000000  0.4606270000000  0.4983400000000 1.0
C      1  0.5177030000000  0.4989080000000  0.5599770000000 1.0
C      1  0.5600310000000  0.5181390000000  0.4981140000000 1.0
C      1  0.4990060000000  0.5602150000000  0.5175340000000 1.0
C      1  0.5174240000000  0.5006980000000  0.4402350000000 1.0
C      1  0.4827010000000  0.5014270000000  0.5602040000000 1.0
C      1  0.4830450000000  0.4988660000000  0.4402380000000 1.0
C      1  0.5601110000000  0.4829800000000  0.5014230000000 1.0
C      1  0.4401500000000  0.4826540000000  0.4986410000000 1.0
C      1  0.4400430000000  0.5178170000000  0.5015040000000 1.0
C      1  0.4986480000000  0.4398760000000  0.4826050000000 1.0
C      1  0.5018190000000  0.4399600000000  0.5175940000000 1.0
C      1  0.5014700000000  0.5596720000000  0.4833540000000 1.0
C      1  0.5174600000000  0.5601230000000  0.4995960000000 1.0
C      1  0.5602700000000  0.4989250000000  0.5173470000000 1.0
C      1  0.4989120000000  0.5176360000000  0.5602160000000 1.0
C      1  0.5178370000000  0.4400600000000  0.5016470000000 1.0
C      1  0.4829460000000  0.5601270000000  0.5014120000000 1.0
C      1  0.4826060000000  0.4398740000000  0.4985970000000 1.0
C      1  0.5598760000000  0.5022980000000  0.4822990000000 1.0
C      1  0.4400850000000  0.4987340000000  0.4825860000000 1.0
C      1  0.4400860000000  0.5016480000000  0.5175200000000 1.0
C      1  0.4990520000000  0.4826800000000  0.4401840000000 1.0
C      1  0.5014050000000  0.5169810000000  0.4406420000000 1.0
C      1  0.5016090000000  0.4827580000000  0.5600280000000 1.0
C      1  0.4700150000000  0.4904460000000  0.4584500000000 1.0
C      1  0.4584600000000  0.4698090000000  0.4902560000000 1.0
C      1  0.4900240000000  0.4581560000000  0.4696930000000 1.0
C      1  0.4700670000000  0.5096370000000  0.5416960000000 1.0
C      1  0.5301360000000  0.5107120000000  0.4574390000000 1.0
C      1  0.5305080000000  0.4906550000000  0.5416300000000 1.0
C      1  0.4583340000000  0.5305900000000  0.5101490000000 1.0
C      1  0.5416030000000  0.5315510000000  0.4889070000000 1.0
C      1  0.5418800000000  0.4700490000000  0.5098660000000 1.0
C      1  0.4904060000000  0.5422990000000  0.5305600000000 1.0
C      1  0.5086600000000  0.5404810000000  0.4708140000000 1.0
C      1  0.5102900000000  0.4583020000000  0.5304100000000 1.0
C      1  0.4697710000000  0.4582150000000  0.4900370000000 1.0
C      1  0.4583980000000  0.4903020000000  0.4697850000000 1.0
C      1  0.4902590000000  0.4695580000000  0.4580150000000 1.0
C      1  0.4699250000000  0.5419130000000  0.5100270000000 1.0
C      1  0.5306180000000  0.4584340000000  0.5101490000000 1.0
C      1  0.5302770000000  0.5429360000000  0.4894990000000 1.0
C      1  0.4585520000000  0.5097760000000  0.5302450000000 1.0
C      1  0.5420290000000  0.4904750000000  0.5302830000000 1.0
C      1  0.5413700000000  0.5111490000000  0.4689920000000 1.0
C      1  0.4905850000000  0.5303310000000  0.5417900000000 1.0
C      1  0.5099670000000  0.4699400000000  0.5416880000000 1.0
C      1  0.5086690000000  0.5294900000000  0.4598200000000 1.0
C      1  0.4643310000000  0.5017440000000  0.4182410000000 1.0
C      1  0.4183400000000  0.4638500000000  0.5014510000000 1.0
C      1  0.5017090000000  0.4180470000000  0.4638870000000 1.0
C      1  0.4640120000000  0.4988730000000  0.5819650000000 1.0
C      1  0.5364570000000  0.4985240000000  0.4180790000000 1.0
C      1  0.5365950000000  0.5015750000000  0.5817870000000 1.0
C      1  0.4182620000000  0.5366650000000  0.4985440000000 1.0
C      1  0.5820360000000  0.5367750000000  0.5012730000000 1.0
C      1  0.5819690000000  0.4642090000000  0.4984260000000 1.0
C      1  0.5013630000000  0.5822510000000  0.5364500000000 1.0
C      1  0.5007840000000  0.5800250000000  0.4640510000000 1.0
C      1  0.4989080000000  0.4180840000000  0.5363700000000 1.0
C      1  0.4638920000000  0.4180120000000  0.5015920000000 1.0
C      1  0.4182840000000  0.5016970000000  0.4636970000000 1.0
C      1  0.5015130000000  0.4636930000000  0.4181700000000 1.0
C      1  0.4642800000000  0.5821080000000  0.4984890000000 1.0
C      1  0.5366730000000  0.4182320000000  0.4986340000000 1.0
C      1  0.5365680000000  0.5822090000000  0.5018950000000 1.0
C      1  0.4182830000000  0.4989250000000  0.5362320000000 1.0
C      1  0.5822030000000  0.5018730000000  0.5360550000000 1.0
C      1  0.5818180000000  0.4991980000000  0.4636900000000 1.0
C      1  0.5014490000000  0.5363380000000  0.5819750000000 1.0
C      1  0.4989950000000  0.4639280000000  0.5818590000000 1.0
C      1  0.5007400000000  0.5362920000000  0.4202880000000 1.0
C      1  0.5043540000000  0.5143710000000  0.5355160000000 1.0
C      1  0.5353030000000  0.5048490000000  0.5146470000000 1.0
C      1  0.5140910000000  0.5345830000000  0.5043680000000 1.0
C      1  0.5041030000000  0.4860360000000  0.4658060000000 1.0
C      1  0.4960180000000  0.4859380000000  0.5352620000000 1.0
C      1  0.4958560000000  0.5141160000000  0.4654220000000 1.0
C      1  0.5356470000000  0.4964700000000  0.4858020000000 1.0
C      1  0.4647630000000  0.4960560000000  0.5143040000000 1.0
C      1  0.4651350000000  0.5045200000000  0.4853360000000 1.0
C      1  0.5150500000000  0.4651370000000  0.4958320000000 1.0
C      1  0.4852790000000  0.4648390000000  0.5045800000000 1.0
C      1  0.4857600000000  0.5350630000000  0.4960720000000 1.0
C      1  0.5039910000000  0.5346730000000  0.5142210000000 1.0
C      1  0.5354170000000  0.5153800000000  0.5042560000000 1.0
C      1  0.5144360000000  0.5045080000000  0.5351310000000 1.0
C      1  0.5044370000000  0.4648040000000  0.4854830000000 1.0
C      1  0.4958870000000  0.5349390000000  0.4862410000000 1.0
C      1  0.4959880000000  0.4649710000000  0.5149590000000 1.0
C      1  0.5354100000000  0.4863960000000  0.4957210000000 1.0
C      1  0.4651060000000  0.5150530000000  0.4957230000000 1.0
C      1  0.4648960000000  0.4859530000000  0.5043880000000 1.0
C      1  0.5141230000000  0.4959790000000  0.4657690000000 1.0
C      1  0.4858130000000  0.5041910000000  0.4653250000000 1.0
C      1  0.4858860000000  0.4958190000000  0.5355390000000 1.0
C      1  0.5247020000000  0.4561280000000  0.5343080000000 1.0
C      1  0.5327800000000  0.5256190000000  0.4545950000000 1.0
C      1  0.4561210000000  0.5342220000000  0.5246390000000 1.0
C      1  0.5222170000000  0.5469010000000  0.4644750000000 1.0
C      1  0.4759980000000  0.5442590000000  0.5343830000000 1.0
C      1  0.4756230000000  0.4558540000000  0.4658120000000 1.0
C      1  0.5342290000000  0.4761660000000  0.5441320000000 1.0
C      1  0.4661680000000  0.4759560000000  0.4559510000000 1.0
C      1  0.4662350000000  0.5241430000000  0.5443030000000 1.0
C      1  0.4559010000000  0.4660720000000  0.4757620000000 1.0
C      1  0.5445040000000  0.4663150000000  0.5243220000000 1.0
C      1  0.5428990000000  0.5355380000000  0.4743460000000 1.0
C      1  0.5222230000000  0.5357780000000  0.4534000000000 1.0
C      1  0.5345130000000  0.4561440000000  0.5245190000000 1.0
C      1  0.4560990000000  0.5242440000000  0.5343170000000 1.0
C      1  0.5244860000000  0.4663480000000  0.5442280000000 1.0
C      1  0.4760670000000  0.5340140000000  0.5442850000000 1.0
C      1  0.4757990000000  0.4660120000000  0.4557900000000 1.0
C      1  0.5327640000000  0.5456940000000  0.4745360000000 1.0
C      1  0.4658560000000  0.4558780000000  0.4756400000000 1.0
C      1  0.4662100000000  0.5442610000000  0.5245620000000 1.0
C      1  0.4560680000000  0.4758710000000  0.4659650000000 1.0
C      1  0.5429800000000  0.5257120000000  0.4646760000000 1.0
C      1  0.5443710000000  0.4760780000000  0.5341030000000 1.0
C      1  0.5820560000000  0.5082650000000  0.4743730000000 1.0
C      1  0.4750540000000  0.5822260000000  0.5074910000000 1.0
C      1  0.5080020000000  0.4747070000000  0.5820260000000 1.0
C      1  0.5823910000000  0.4927670000000  0.5253340000000 1.0
C      1  0.4180630000000  0.4925690000000  0.4744400000000 1.0
C      1  0.4181030000000  0.5079370000000  0.5254810000000 1.0
C      1  0.4746540000000  0.4178040000000  0.4925160000000 1.0
C      1  0.5259370000000  0.4180000000000  0.5077380000000 1.0
C      1  0.5257250000000  0.5822020000000  0.4929390000000 1.0
C      1  0.5087280000000  0.5250540000000  0.4192620000000 1.0
C      1  0.4925310000000  0.5255270000000  0.5821830000000 1.0
C      1  0.4926200000000  0.4745960000000  0.4181140000000 1.0
C      1  0.5821960000000  0.4749670000000  0.5074610000000 1.0
C      1  0.4748240000000  0.5077940000000  0.5821530000000 1.0
C      1  0.5088230000000  0.5810730000000  0.4752420000000 1.0
C      1  0.5822490000000  0.5260920000000  0.4921300000000 1.0
C      1  0.4181640000000  0.4746350000000  0.4924260000000 1.0
C      1  0.4180420000000  0.5258740000000  0.5076180000000 1.0
C      1  0.4750670000000  0.4927010000000  0.4181250000000 1.0
C      1  0.5255920000000  0.5074120000000  0.4181380000000 1.0
C      1  0.5258150000000  0.4925650000000  0.5819610000000 1.0
C      1  0.5080300000000  0.4178910000000  0.5256560000000 1.0
C      1  0.4925260000000  0.5822730000000  0.5255310000000 1.0
C      1  0.4925880000000  0.4177870000000  0.4745960000000 1.0
C      1  0.4365110000000  0.5238080000000  0.4876160000000 1.0
C      1  0.4878780000000  0.4364080000000  0.5235960000000 1.0
C      1  0.5238200000000  0.4872280000000  0.4365510000000 1.0
C      1  0.4367140000000  0.4765440000000  0.5125710000000 1.0
C      1  0.5635090000000  0.4769660000000  0.4875130000000 1.0
C      1  0.5636990000000  0.5238850000000  0.5121440000000 1.0
C      1  0.4878340000000  0.5632910000000  0.4766800000000 1.0
C      1  0.5127880000000  0.5638130000000  0.5240640000000 1.0
C      1  0.5126160000000  0.4364700000000  0.4766400000000 1.0
C      1  0.5238910000000  0.5127930000000  0.5634920000000 1.0
C      1  0.4767340000000  0.5127340000000  0.4367240000000 1.0
C      1  0.4765420000000  0.4875450000000  0.5635890000000 1.0
C      1  0.4367120000000  0.4876680000000  0.5236560000000 1.0
C      1  0.4878060000000  0.5236550000000  0.4370300000000 1.0
C      1  0.5237730000000  0.4365550000000  0.4877200000000 1.0
C      1  0.4365320000000  0.5126600000000  0.4765380000000 1.0
C      1  0.5633790000000  0.4881690000000  0.4764860000000 1.0
C      1  0.5638080000000  0.5128130000000  0.5233260000000 1.0
C      1  0.4877180000000  0.4765360000000  0.5635340000000 1.0
C      1  0.5127990000000  0.5238570000000  0.5635710000000 1.0
C      1  0.5128220000000  0.4761870000000  0.4365520000000 1.0
C      1  0.5238240000000  0.5638340000000  0.5130580000000 1.0
C      1  0.4766780000000  0.4363730000000  0.5125300000000 1.0
C      1  0.4767100000000  0.5636250000000  0.4875550000000 1.0
C      1  0.5120890000000  0.4148820000000  0.4883000000000 1.0
C      1  0.4886750000000  0.5122330000000  0.4154200000000 1.0
C      1  0.4151650000000  0.4884570000000  0.5118330000000 1.0
C      1  0.5122680000000  0.5852810000000  0.5123240000000 1.0
C      1  0.4887370000000  0.5849040000000  0.4879370000000 1.0
C      1  0.4885280000000  0.4148000000000  0.5119670000000 1.0
C      1  0.4884480000000  0.4882460000000  0.5850680000000 1.0
C      1  0.5122650000000  0.4879590000000  0.4150900000000 1.0
C      1  0.5121410000000  0.5120420000000  0.5850450000000 1.0
C      1  0.4149580000000  0.5120350000000  0.4881630000000 1.0
C      1  0.5853740000000  0.5123250000000  0.5116790000000 1.0
C      1  0.5851220000000  0.4887030000000  0.4879790000000 1.0
C      1  0.5354720000000  0.5192840000000  0.5187450000000 1.0
C      1  0.5188110000000  0.4648730000000  0.4813130000000 1.0
C      1  0.4814870000000  0.4645970000000  0.5189410000000 1.0
C      1  0.4649690000000  0.5189870000000  0.4813010000000 1.0
END
