TITL C-197165-9844-6 0.0211352090785149 1000000 -3691.43197154859 0 0 520 (C1) n - 1
REM
REM in /rds/project/t2_vol4/rds-t2-cs072/BORA/CARBON/from-Arr/AIRSS/Generating-Clusters/GAP-ML-2020/Higher-Symm/Selected-Sizes/Larger-Clusters/Only-C240
REM
REM
REM
REM
REM
REM ./C.cell (db1db5b03a21c153a00b653f6831bbfd)
REM AIRSS Version 0.9.1 bugfix July 2018 build 013d7b7c2542+ Fri, 06 Jul 2018 19:26:36 +0100
REM compiler GCC version 9.3.0
REM options -cpp -mtune=generic -march=x86-64 -g -O0
REM seed -321081589 -435409244 565979877 -535226488 -1274797988 247143170 995577348 -1004214103 -275960646 376032245 985940020 -617134504 -1862864884 1653718919 83679478 74363427 908668999 -640048149 458845779 -755551971 -790724446 -1864049640 -1143390982 104317031 -1366469253 -514630279 -1970919288 -751388872 1747795664 1812160316 -670885752 -386248636 324449843
REM
CELL 1.54180  100.00000  100.00000  100.00000   90.00000   90.00000   90.00000
LATT -1
SFAC C  
C      1  0.5484290000000  0.4590510000000  0.5240540000000 1.0
C      1  0.4590670000000  0.5244790000000  0.5474780000000 1.0
C      1  0.5240850000000  0.5484710000000  0.4591860000000 1.0
C      1  0.5474730000000  0.5411180000000  0.4755420000000 1.0
C      1  0.4525200000000  0.4588570000000  0.4755330000000 1.0
C      1  0.4525200000000  0.5409250000000  0.5244700000000 1.0
C      1  0.4590500000000  0.4753710000000  0.4524730000000 1.0
C      1  0.5409490000000  0.5246170000000  0.4524660000000 1.0
C      1  0.5411390000000  0.4754510000000  0.5475140000000 1.0
C      1  0.5242080000000  0.4514860000000  0.5407590000000 1.0
C      1  0.4755080000000  0.5474660000000  0.5409260000000 1.0
C      1  0.4759280000000  0.4515170000000  0.4591900000000 1.0
C      1  0.4422790000000  0.4781380000000  0.4349000000000 1.0
C      1  0.4780890000000  0.4349810000000  0.4419300000000 1.0
C      1  0.4349630000000  0.4421760000000  0.4781670000000 1.0
C      1  0.4422630000000  0.5218940000000  0.5650910000000 1.0
C      1  0.5578030000000  0.4781770000000  0.5650240000000 1.0
C      1  0.5577230000000  0.5218700000000  0.4348930000000 1.0
C      1  0.4781380000000  0.5651020000000  0.5576950000000 1.0
C      1  0.5218590000000  0.4350160000000  0.5580080000000 1.0
C      1  0.5219110000000  0.5650200000000  0.4419380000000 1.0
C      1  0.4349030000000  0.5577270000000  0.5218380000000 1.0
C      1  0.5648900000000  0.4418660000000  0.5218470000000 1.0
C      1  0.5650270000000  0.5578050000000  0.4781840000000 1.0
C      1  0.4244990000000  0.5340980000000  0.4890440000000 1.0
C      1  0.5341220000000  0.4890520000000  0.4244440000000 1.0
C      1  0.4892520000000  0.4246730000000  0.5343220000000 1.0
C      1  0.4244490000000  0.4659120000000  0.5109750000000 1.0
C      1  0.5754730000000  0.5341330000000  0.5110080000000 1.0
C      1  0.5754100000000  0.4657780000000  0.4892860000000 1.0
C      1  0.5340980000000  0.5110220000000  0.5755590000000 1.0
C      1  0.4658790000000  0.4891040000000  0.5755390000000 1.0
C      1  0.4658770000000  0.5109730000000  0.4244710000000 1.0
C      1  0.4893360000000  0.5754060000000  0.4657190000000 1.0
C      1  0.5106590000000  0.4246330000000  0.4656300000000 1.0
C      1  0.5109560000000  0.5754820000000  0.5341750000000 1.0
C      1  0.4454100000000  0.5413610000000  0.4767210000000 1.0
C      1  0.5414180000000  0.4768040000000  0.4453550000000 1.0
C      1  0.4766290000000  0.4454970000000  0.5415020000000 1.0
C      1  0.4453510000000  0.4586470000000  0.5232810000000 1.0
C      1  0.5545780000000  0.5413680000000  0.5233140000000 1.0
C      1  0.5546230000000  0.4585610000000  0.4765810000000 1.0
C      1  0.5413460000000  0.5232540000000  0.5546390000000 1.0
C      1  0.4586070000000  0.4768000000000  0.5546440000000 1.0
C      1  0.4586040000000  0.5232080000000  0.4453940000000 1.0
C      1  0.4766360000000  0.5546110000000  0.4584900000000 1.0
C      1  0.5233610000000  0.4454120000000  0.4584100000000 1.0
C      1  0.5232720000000  0.5546020000000  0.5414470000000 1.0
C      1  0.4208730000000  0.4619440000000  0.4668780000000 1.0
C      1  0.4619610000000  0.4668960000000  0.4208320000000 1.0
C      1  0.4663180000000  0.4209390000000  0.4620850000000 1.0
C      1  0.4208650000000  0.5380410000000  0.5331310000000 1.0
C      1  0.5790400000000  0.4620370000000  0.5336530000000 1.0
C      1  0.5791190000000  0.5380320000000  0.4669170000000 1.0
C      1  0.4619510000000  0.5331900000000  0.5791310000000 1.0
C      1  0.5380330000000  0.4669320000000  0.5791250000000 1.0
C      1  0.5380350000000  0.5331230000000  0.4208360000000 1.0
C      1  0.4668790000000  0.5791370000000  0.5379880000000 1.0
C      1  0.5335980000000  0.4208930000000  0.5378930000000 1.0
C      1  0.5337060000000  0.5790660000000  0.4620750000000 1.0
C      1  0.4838020000000  0.4461830000000  0.4799060000000 1.0
C      1  0.4463370000000  0.4794900000000  0.4835430000000 1.0
C      1  0.4796040000000  0.4835010000000  0.4462800000000 1.0
C      1  0.4835840000000  0.5536900000000  0.5203660000000 1.0
C      1  0.5162930000000  0.4461880000000  0.5200700000000 1.0
C      1  0.5161930000000  0.5538280000000  0.4798790000000 1.0
C      1  0.4462960000000  0.5203420000000  0.5163940000000 1.0
C      1  0.5537720000000  0.4798050000000  0.5162440000000 1.0
C      1  0.5536420000000  0.5204750000000  0.4835410000000 1.0
C      1  0.4796400000000  0.5163840000000  0.5537090000000 1.0
C      1  0.5205240000000  0.4834920000000  0.5536580000000 1.0
C      1  0.5203830000000  0.5164970000000  0.4462750000000 1.0
C      1  0.4506150000000  0.5126710000000  0.5719640000000 1.0
C      1  0.5125160000000  0.5711310000000  0.4507380000000 1.0
C      1  0.5710710000000  0.4507300000000  0.5125010000000 1.0
C      1  0.4506430000000  0.4873730000000  0.4280580000000 1.0
C      1  0.5493580000000  0.5126450000000  0.4280410000000 1.0
C      1  0.5493580000000  0.4873880000000  0.5718750000000 1.0
C      1  0.5124590000000  0.4289150000000  0.5492080000000 1.0
C      1  0.4873800000000  0.5719420000000  0.5493360000000 1.0
C      1  0.4874890000000  0.4288910000000  0.4507340000000 1.0
C      1  0.5718720000000  0.5493540000000  0.4873970000000 1.0
C      1  0.4280980000000  0.4506250000000  0.4873690000000 1.0
C      1  0.4280440000000  0.5493630000000  0.5126100000000 1.0
C      1  0.5840610000000  0.5144900000000  0.5117870000000 1.0
C      1  0.5143890000000  0.5117360000000  0.5840900000000 1.0
C      1  0.5117750000000  0.5840730000000  0.5145150000000 1.0
C      1  0.5839620000000  0.4855220000000  0.4885240000000 1.0
C      1  0.4159800000000  0.5143740000000  0.4883380000000 1.0
C      1  0.4159320000000  0.4856170000000  0.5116830000000 1.0
C      1  0.5144100000000  0.4883390000000  0.4158690000000 1.0
C      1  0.4855780000000  0.5116950000000  0.4158800000000 1.0
C      1  0.4856100000000  0.4884150000000  0.5840620000000 1.0
C      1  0.5115350000000  0.4159770000000  0.4853160000000 1.0
C      1  0.4885280000000  0.5839760000000  0.4854660000000 1.0
C      1  0.4883470000000  0.4159920000000  0.5146540000000 1.0
C      1  0.5383510000000  0.5640540000000  0.4979920000000 1.0
C      1  0.5640560000000  0.4979860000000  0.5383680000000 1.0
C      1  0.4978030000000  0.5382000000000  0.5640880000000 1.0
C      1  0.5382100000000  0.4356870000000  0.5019000000000 1.0
C      1  0.4617690000000  0.5640870000000  0.5021890000000 1.0
C      1  0.4615970000000  0.4359220000000  0.4979880000000 1.0
C      1  0.5640860000000  0.5022270000000  0.4617610000000 1.0
C      1  0.4359350000000  0.4977710000000  0.4617920000000 1.0
C      1  0.4359250000000  0.5022000000000  0.5382080000000 1.0
C      1  0.4978740000000  0.4619980000000  0.4356450000000 1.0
C      1  0.5021140000000  0.5380280000000  0.4356620000000 1.0
C      1  0.5021410000000  0.4620190000000  0.5642920000000 1.0
C      1  0.5194970000000  0.4248210000000  0.5363000000000 1.0
C      1  0.4202010000000  0.5380830000000  0.5187450000000 1.0
C      1  0.5380880000000  0.5187410000000  0.4201740000000 1.0
C      1  0.5196060000000  0.5751270000000  0.4636600000000 1.0
C      1  0.4804020000000  0.4249590000000  0.4637040000000 1.0
C      1  0.4812650000000  0.5797820000000  0.5380270000000 1.0
C      1  0.4202130000000  0.4618970000000  0.4812610000000 1.0
C      1  0.5797570000000  0.5380700000000  0.4813000000000 1.0
C      1  0.5752220000000  0.4635940000000  0.5195480000000 1.0
C      1  0.5380980000000  0.4813150000000  0.5797810000000 1.0
C      1  0.4619000000000  0.5188060000000  0.5798090000000 1.0
C      1  0.4619070000000  0.4812800000000  0.4201820000000 1.0
C      1  0.5052240000000  0.4636870000000  0.4954130000000 1.0
C      1  0.4636380000000  0.4952480000000  0.5051110000000 1.0
C      1  0.4953560000000  0.5051060000000  0.4635890000000 1.0
C      1  0.5051040000000  0.5363590000000  0.5046330000000 1.0
C      1  0.4949230000000  0.4636770000000  0.5046120000000 1.0
C      1  0.4948590000000  0.5363240000000  0.4953520000000 1.0
C      1  0.4636450000000  0.5045620000000  0.4948850000000 1.0
C      1  0.5362950000000  0.4953790000000  0.4948470000000 1.0
C      1  0.5363520000000  0.5046400000000  0.5050990000000 1.0
C      1  0.4954800000000  0.4948320000000  0.5363530000000 1.0
C      1  0.5047750000000  0.5050630000000  0.5363810000000 1.0
C      1  0.5046400000000  0.4948610000000  0.4636020000000 1.0
C      1  0.4642480000000  0.4346350000000  0.4409700000000 1.0
C      1  0.4346410000000  0.4409240000000  0.4643010000000 1.0
C      1  0.4409130000000  0.4642970000000  0.4345780000000 1.0
C      1  0.4642830000000  0.5654240000000  0.5590390000000 1.0
C      1  0.5356820000000  0.4346510000000  0.5589940000000 1.0
C      1  0.5357540000000  0.5653580000000  0.4409730000000 1.0
C      1  0.4345910000000  0.5590890000000  0.5356920000000 1.0
C      1  0.5652550000000  0.4409690000000  0.5356950000000 1.0
C      1  0.5653620000000  0.5590590000000  0.4643190000000 1.0
C      1  0.4409120000000  0.5357510000000  0.5653920000000 1.0
C      1  0.5590520000000  0.4643220000000  0.5653400000000 1.0
C      1  0.5590910000000  0.5357080000000  0.4345810000000 1.0
C      1  0.4612320000000  0.5754190000000  0.5249630000000 1.0
C      1  0.5754200000000  0.5250070000000  0.4612650000000 1.0
C      1  0.5249830000000  0.4612940000000  0.5754300000000 1.0
C      1  0.4604780000000  0.4242580000000  0.4753700000000 1.0
C      1  0.5395540000000  0.5757310000000  0.4753510000000 1.0
C      1  0.5394330000000  0.4242020000000  0.5245710000000 1.0
C      1  0.5757250000000  0.4753140000000  0.5395000000000 1.0
C      1  0.4245780000000  0.5250230000000  0.5388030000000 1.0
C      1  0.4245810000000  0.4749670000000  0.4612190000000 1.0
C      1  0.5249880000000  0.5387740000000  0.4245240000000 1.0
C      1  0.4750090000000  0.4612460000000  0.4245160000000 1.0
C      1  0.4749760000000  0.5388380000000  0.5754130000000 1.0
C      1  0.4904000000000  0.5182880000000  0.5218430000000 1.0
C      1  0.5183750000000  0.5219120000000  0.4902820000000 1.0
C      1  0.5219830000000  0.4901910000000  0.5184430000000 1.0
C      1  0.4903300000000  0.4814210000000  0.4780270000000 1.0
C      1  0.5096840000000  0.5185450000000  0.4780090000000 1.0
C      1  0.5098590000000  0.4813700000000  0.5219570000000 1.0
C      1  0.5186490000000  0.4779790000000  0.5097400000000 1.0
C      1  0.4816670000000  0.5217750000000  0.5096290000000 1.0
C      1  0.4816350000000  0.4780530000000  0.4902760000000 1.0
C      1  0.5218300000000  0.5097480000000  0.4815610000000 1.0
C      1  0.4781700000000  0.4902210000000  0.4815710000000 1.0
C      1  0.4782020000000  0.5095830000000  0.5183440000000 1.0
C      1  0.4653010000000  0.4754940000000  0.4651490000000 1.0
C      1  0.4757460000000  0.4642670000000  0.4653540000000 1.0
C      1  0.4653450000000  0.4649030000000  0.4755840000000 1.0
C      1  0.4653860000000  0.5241600000000  0.5347650000000 1.0
C      1  0.5351830000000  0.4753750000000  0.5347260000000 1.0
C      1  0.5346980000000  0.5244860000000  0.4651430000000 1.0
C      1  0.4758250000000  0.5347450000000  0.5346150000000 1.0
C      1  0.5246380000000  0.4642040000000  0.5346130000000 1.0
C      1  0.5242550000000  0.5357200000000  0.4653530000000 1.0
C      1  0.4652300000000  0.5345960000000  0.5241730000000 1.0
C      1  0.5355880000000  0.4650100000000  0.5244720000000 1.0
C      1  0.5346490000000  0.5350690000000  0.4755850000000 1.0
C      1  0.4280850000000  0.4520940000000  0.4586710000000 1.0
C      1  0.4521140000000  0.4586580000000  0.4280760000000 1.0
C      1  0.4584930000000  0.4281820000000  0.4521710000000 1.0
C      1  0.4280430000000  0.5479140000000  0.5413480000000 1.0
C      1  0.5717400000000  0.4521440000000  0.5414440000000 1.0
C      1  0.5719160000000  0.5478830000000  0.4586990000000 1.0
C      1  0.4520870000000  0.5414050000000  0.5719400000000 1.0
C      1  0.5478560000000  0.4587080000000  0.5718480000000 1.0
C      1  0.5478850000000  0.5413500000000  0.4280830000000 1.0
C      1  0.4586430000000  0.5719700000000  0.5478570000000 1.0
C      1  0.5414250000000  0.4282210000000  0.5477790000000 1.0
C      1  0.5415220000000  0.5718130000000  0.4521620000000 1.0
C      1  0.5155790000000  0.5584660000000  0.5096970000000 1.0
C      1  0.5584520000000  0.5096690000000  0.5155840000000 1.0
C      1  0.5096790000000  0.5155800000000  0.5585410000000 1.0
C      1  0.5156590000000  0.4415500000000  0.4903320000000 1.0
C      1  0.4843060000000  0.5585060000000  0.4904250000000 1.0
C      1  0.4843220000000  0.4415600000000  0.5096640000000 1.0
C      1  0.5584810000000  0.4905030000000  0.4843120000000 1.0
C      1  0.4415030000000  0.5095140000000  0.4844040000000 1.0
C      1  0.4414710000000  0.4903320000000  0.5155940000000 1.0
C      1  0.5096310000000  0.4844790000000  0.4414370000000 1.0
C      1  0.4903540000000  0.5155290000000  0.4414450000000 1.0
C      1  0.4905000000000  0.4844700000000  0.5585050000000 1.0
C      1  0.4750770000000  0.4353590000000  0.5205020000000 1.0
C      1  0.4353540000000  0.5203060000000  0.4751320000000 1.0
C      1  0.5204040000000  0.4751460000000  0.4352420000000 1.0
C      1  0.4751140000000  0.5647280000000  0.4795430000000 1.0
C      1  0.5248530000000  0.4353170000000  0.4794460000000 1.0
C      1  0.5248760000000  0.5646200000000  0.5204250000000 1.0
C      1  0.4352520000000  0.4796360000000  0.5249670000000 1.0
C      1  0.5646360000000  0.5203740000000  0.5249420000000 1.0
C      1  0.5647230000000  0.4796320000000  0.4750930000000 1.0
C      1  0.5203690000000  0.5249700000000  0.5647550000000 1.0
C      1  0.4796760000000  0.4752200000000  0.5646780000000 1.0
C      1  0.4795910000000  0.5248940000000  0.4352570000000 1.0
C      1  0.4903640000000  0.4777460000000  0.4534390000000 1.0
C      1  0.4776990000000  0.4533890000000  0.4902930000000 1.0
C      1  0.4535360000000  0.4902450000000  0.4778340000000 1.0
C      1  0.4904430000000  0.5220780000000  0.5465010000000 1.0
C      1  0.5098310000000  0.4776890000000  0.5464990000000 1.0
C      1  0.5096310000000  0.5222590000000  0.4534360000000 1.0
C      1  0.4778690000000  0.5464640000000  0.5095820000000 1.0
C      1  0.5224690000000  0.4533680000000  0.5097190000000 1.0
C      1  0.5222540000000  0.5466000000000  0.4902930000000 1.0
C      1  0.4535260000000  0.5095460000000  0.5220870000000 1.0
C      1  0.5465900000000  0.4901920000000  0.5223300000000 1.0
C      1  0.5464610000000  0.5097360000000  0.4777910000000 1.0
C      1  0.5067210000000  0.5475930000000  0.5136520000000 1.0
C      1  0.5476010000000  0.5136520000000  0.5066980000000 1.0
C      1  0.5137480000000  0.5066990000000  0.5476790000000 1.0
C      1  0.5068700000000  0.4524920000000  0.4864550000000 1.0
C      1  0.4931210000000  0.5475680000000  0.4864470000000 1.0
C      1  0.4931880000000  0.4524590000000  0.5135360000000 1.0
C      1  0.5475580000000  0.4864930000000  0.4931410000000 1.0
C      1  0.4523750000000  0.5135570000000  0.4932680000000 1.0
C      1  0.4523500000000  0.4862650000000  0.5067360000000 1.0
C      1  0.5136560000000  0.4933070000000  0.4523330000000 1.0
C      1  0.4863330000000  0.5066830000000  0.4523250000000 1.0
C      1  0.4864580000000  0.4932800000000  0.5476030000000 1.0
C      1  0.4579710000000  0.4381530000000  0.4714560000000 1.0
C      1  0.4383940000000  0.4713860000000  0.4578840000000 1.0
C      1  0.4714420000000  0.4579150000000  0.4383410000000 1.0
C      1  0.4579090000000  0.5615770000000  0.5285700000000 1.0
C      1  0.5419660000000  0.4380770000000  0.5284610000000 1.0
C      1  0.5420330000000  0.5618330000000  0.4714490000000 1.0
C      1  0.4384290000000  0.5286080000000  0.5420840000000 1.0
C      1  0.5618610000000  0.4714620000000  0.5420430000000 1.0
C      1  0.5616140000000  0.5285970000000  0.4578910000000 1.0
C      1  0.4713920000000  0.5421030000000  0.5615580000000 1.0
C      1  0.5285400000000  0.4579380000000  0.5616330000000 1.0
C      1  0.5285520000000  0.5420870000000  0.4383520000000 1.0
C      1  0.4797270000000  0.5814690000000  0.5117980000000 1.0
C      1  0.5814540000000  0.5118410000000  0.4797360000000 1.0
C      1  0.5119140000000  0.4797910000000  0.5815580000000 1.0
C      1  0.4795770000000  0.4189310000000  0.4884800000000 1.0
C      1  0.5204800000000  0.5810810000000  0.4884120000000 1.0
C      1  0.5202850000000  0.4188400000000  0.5115140000000 1.0
C      1  0.5810690000000  0.4883880000000  0.5204730000000 1.0
C      1  0.4185280000000  0.5118880000000  0.5203390000000 1.0
C      1  0.4185330000000  0.4880990000000  0.4796680000000 1.0
C      1  0.5119000000000  0.5202690000000  0.4184010000000 1.0
C      1  0.4880910000000  0.4797600000000  0.4183950000000 1.0
C      1  0.4881040000000  0.5203760000000  0.5814940000000 1.0
C      1  0.5205470000000  0.5770610000000  0.5240180000000 1.0
C      1  0.5770730000000  0.5239770000000  0.5206020000000 1.0
C      1  0.5239120000000  0.5205880000000  0.5771840000000 1.0
C      1  0.5202480000000  0.4229760000000  0.4757730000000 1.0
C      1  0.4797720000000  0.5770510000000  0.4759000000000 1.0
C      1  0.4796450000000  0.4230070000000  0.5241910000000 1.0
C      1  0.5770460000000  0.4759750000000  0.4797390000000 1.0
C      1  0.4229350000000  0.5238800000000  0.4795100000000 1.0
C      1  0.4228330000000  0.4760970000000  0.5205440000000 1.0
C      1  0.5239290000000  0.4794980000000  0.4228020000000 1.0
C      1  0.4760610000000  0.5205350000000  0.4228170000000 1.0
C      1  0.4761060000000  0.4795850000000  0.5771010000000 1.0
C      1  0.4599550000000  0.4887860000000  0.5331320000000 1.0
C      1  0.4887750000000  0.5331410000000  0.4598670000000 1.0
C      1  0.5332020000000  0.4599220000000  0.4887840000000 1.0
C      1  0.4599320000000  0.5110200000000  0.4668640000000 1.0
C      1  0.5400770000000  0.4889570000000  0.4668240000000 1.0
C      1  0.5400870000000  0.5110390000000  0.5331560000000 1.0
C      1  0.4889530000000  0.4668750000000  0.5400840000000 1.0
C      1  0.5111940000000  0.5331160000000  0.5400940000000 1.0
C      1  0.5112280000000  0.4668670000000  0.4598700000000 1.0
C      1  0.5331190000000  0.5400580000000  0.5111370000000 1.0
C      1  0.4668410000000  0.4599060000000  0.5111290000000 1.0
C      1  0.4668590000000  0.5400500000000  0.4888060000000 1.0
C      1  0.4745180000000  0.4412000000000  0.4689220000000 1.0
C      1  0.4434270000000  0.4690890000000  0.4736590000000 1.0
C      1  0.4692430000000  0.4735780000000  0.4433960000000 1.0
C      1  0.4736620000000  0.5566380000000  0.5307780000000 1.0
C      1  0.5254820000000  0.4411950000000  0.5310330000000 1.0
C      1  0.5254940000000  0.5587850000000  0.4689120000000 1.0
C      1  0.4433530000000  0.5307780000000  0.5263150000000 1.0
C      1  0.5586830000000  0.4688380000000  0.5254790000000 1.0
C      1  0.5565620000000  0.5308850000000  0.4736710000000 1.0
C      1  0.4692120000000  0.5263220000000  0.5566460000000 1.0
C      1  0.5308640000000  0.4736110000000  0.5565170000000 1.0
C      1  0.5307530000000  0.5264170000000  0.4433920000000 1.0
C      1  0.5234960000000  0.5280810000000  0.5156220000000 1.0
C      1  0.5281510000000  0.5155690000000  0.5235200000000 1.0
C      1  0.5157230000000  0.5234680000000  0.5280950000000 1.0
C      1  0.5235840000000  0.4719190000000  0.4843360000000 1.0
C      1  0.4764780000000  0.5280220000000  0.4843160000000 1.0
C      1  0.4765270000000  0.4718570000000  0.5156390000000 1.0
C      1  0.5280860000000  0.4844150000000  0.4764260000000 1.0
C      1  0.4719010000000  0.5155310000000  0.4764610000000 1.0
C      1  0.4719900000000  0.4842790000000  0.5235200000000 1.0
C      1  0.5156900000000  0.4764840000000  0.4718740000000 1.0
C      1  0.4843170000000  0.5234970000000  0.4718490000000 1.0
C      1  0.4844760000000  0.4764510000000  0.5281120000000 1.0
C      1  0.4879150000000  0.5646540000000  0.4561350000000 1.0
C      1  0.5646710000000  0.4562020000000  0.4878750000000 1.0
C      1  0.4563170000000  0.4879820000000  0.5648100000000 1.0
C      1  0.4878840000000  0.4354500000000  0.5438650000000 1.0
C      1  0.5120730000000  0.5647570000000  0.5437300000000 1.0
C      1  0.5120860000000  0.4353820000000  0.4560530000000 1.0
C      1  0.5647440000000  0.5436650000000  0.5121100000000 1.0
C      1  0.4351800000000  0.4563670000000  0.5120800000000 1.0
C      1  0.4352320000000  0.5436540000000  0.4879200000000 1.0
C      1  0.4563380000000  0.5120380000000  0.4352240000000 1.0
C      1  0.5436730000000  0.4879770000000  0.4351870000000 1.0
C      1  0.5436270000000  0.5120800000000  0.5648120000000 1.0
C      1  0.5117300000000  0.4712720000000  0.5332500000000 1.0
C      1  0.4717130000000  0.5330790000000  0.5113060000000 1.0
C      1  0.5331180000000  0.5115510000000  0.4716340000000 1.0
C      1  0.5114350000000  0.5286810000000  0.4667080000000 1.0
C      1  0.4885640000000  0.4713110000000  0.4667020000000 1.0
C      1  0.4886980000000  0.5282550000000  0.5331300000000 1.0
C      1  0.4716630000000  0.4667640000000  0.4885520000000 1.0
C      1  0.5283190000000  0.5332250000000  0.4885490000000 1.0
C      1  0.5287580000000  0.4666550000000  0.5115270000000 1.0
C      1  0.5332480000000  0.4883790000000  0.5283920000000 1.0
C      1  0.4668910000000  0.5112850000000  0.5282860000000 1.0
C      1  0.4668780000000  0.4884230000000  0.4716530000000 1.0
C      1  0.5336170000000  0.5752040000000  0.4881820000000 1.0
C      1  0.5752060000000  0.4881650000000  0.5336100000000 1.0
C      1  0.4879840000000  0.5333170000000  0.5752430000000 1.0
C      1  0.5334540000000  0.4246610000000  0.5117600000000 1.0
C      1  0.4667460000000  0.5752560000000  0.5119610000000 1.0
C      1  0.4664080000000  0.4247760000000  0.4882040000000 1.0
C      1  0.5752480000000  0.5119980000000  0.4667550000000 1.0
C      1  0.4247650000000  0.4879760000000  0.4667140000000 1.0
C      1  0.4247580000000  0.5120110000000  0.5332940000000 1.0
C      1  0.4879900000000  0.4668220000000  0.4246180000000 1.0
C      1  0.5120020000000  0.5332050000000  0.4246270000000 1.0
C      1  0.5120040000000  0.4668550000000  0.5753280000000 1.0
C      1  0.5005440000000  0.4869440000000  0.4185010000000 1.0
C      1  0.4868670000000  0.4186280000000  0.5008120000000 1.0
C      1  0.4185750000000  0.5005010000000  0.4869180000000 1.0
C      1  0.5005260000000  0.5131490000000  0.5814220000000 1.0
C      1  0.4994790000000  0.4869930000000  0.5814780000000 1.0
C      1  0.4994460000000  0.5130850000000  0.4185120000000 1.0
C      1  0.4869850000000  0.5814690000000  0.4993640000000 1.0
C      1  0.5130290000000  0.4185830000000  0.4991550000000 1.0
C      1  0.5131800000000  0.5813370000000  0.5007040000000 1.0
C      1  0.4185930000000  0.4994780000000  0.5131010000000 1.0
C      1  0.5813220000000  0.5006810000000  0.5131790000000 1.0
C      1  0.5814570000000  0.4994150000000  0.4869920000000 1.0
C      1  0.4489500000000  0.4421060000000  0.4953080000000 1.0
C      1  0.4421190000000  0.4951880000000  0.4490380000000 1.0
C      1  0.4952550000000  0.4492800000000  0.4417200000000 1.0
C      1  0.4490160000000  0.5579010000000  0.5047690000000 1.0
C      1  0.5508160000000  0.4417840000000  0.5046230000000 1.0
C      1  0.5509960000000  0.5578800000000  0.4953080000000 1.0
C      1  0.4421050000000  0.5047970000000  0.5509610000000 1.0
C      1  0.5578720000000  0.4953080000000  0.5510180000000 1.0
C      1  0.5579030000000  0.5048160000000  0.4490030000000 1.0
C      1  0.4952080000000  0.5509460000000  0.5579030000000 1.0
C      1  0.5047480000000  0.4493050000000  0.5582050000000 1.0
C      1  0.5047260000000  0.5507410000000  0.4417580000000 1.0
C      1  0.4380680000000  0.5414810000000  0.5509070000000 1.0
C      1  0.5414330000000  0.5509220000000  0.4381040000000 1.0
C      1  0.5508780000000  0.4381890000000  0.5413600000000 1.0
C      1  0.4380480000000  0.4585660000000  0.4490800000000 1.0
C      1  0.5619600000000  0.5414210000000  0.4490930000000 1.0
C      1  0.5618280000000  0.4586000000000  0.5509050000000 1.0
C      1  0.5413600000000  0.4491130000000  0.5618790000000 1.0
C      1  0.4585320000000  0.5509470000000  0.5619060000000 1.0
C      1  0.4585670000000  0.4490740000000  0.4380920000000 1.0
C      1  0.5509560000000  0.5618370000000  0.4585650000000 1.0
C      1  0.4490550000000  0.4381520000000  0.4585650000000 1.0
C      1  0.4490770000000  0.5619480000000  0.5414300000000 1.0
C      1  0.5685860000000  0.4976340000000  0.4932460000000 1.0
C      1  0.4976160000000  0.4932950000000  0.5686210000000 1.0
C      1  0.4932540000000  0.5686070000000  0.4975720000000 1.0
C      1  0.5685540000000  0.5026060000000  0.5066970000000 1.0
C      1  0.4314060000000  0.4975100000000  0.5067490000000 1.0
C      1  0.4314090000000  0.5023740000000  0.4932550000000 1.0
C      1  0.4975290000000  0.5067400000000  0.4313420000000 1.0
C      1  0.5024580000000  0.4932770000000  0.4313370000000 1.0
C      1  0.5025010000000  0.5067760000000  0.5686180000000 1.0
C      1  0.4933100000000  0.4314170000000  0.5026290000000 1.0
C      1  0.5066810000000  0.5685750000000  0.5026230000000 1.0
C      1  0.5066530000000  0.4314080000000  0.4973610000000 1.0
C      1  0.4487830000000  0.4997410000000  0.4367500000000 1.0
C      1  0.4998640000000  0.4371300000000  0.4484360000000 1.0
C      1  0.4367010000000  0.4488180000000  0.4997640000000 1.0
C      1  0.4487560000000  0.5002740000000  0.5632730000000 1.0
C      1  0.5511700000000  0.4997680000000  0.5632760000000 1.0
C      1  0.5512290000000  0.5002710000000  0.4367170000000 1.0
C      1  0.4997610000000  0.5632380000000  0.5512520000000 1.0
C      1  0.5001140000000  0.4371770000000  0.5514760000000 1.0
C      1  0.5001310000000  0.5628960000000  0.4484930000000 1.0
C      1  0.4367380000000  0.5512230000000  0.5002190000000 1.0
C      1  0.5629310000000  0.4485610000000  0.5001070000000 1.0
C      1  0.5632420000000  0.5511880000000  0.4997810000000 1.0
C      1  0.5188170000000  0.4493610000000  0.5546610000000 1.0
C      1  0.4493390000000  0.5545520000000  0.5188230000000 1.0
C      1  0.5545600000000  0.5188710000000  0.4493340000000 1.0
C      1  0.5188040000000  0.5506960000000  0.4452760000000 1.0
C      1  0.4811870000000  0.4493090000000  0.4452630000000 1.0
C      1  0.4811560000000  0.5506570000000  0.5545450000000 1.0
C      1  0.4494780000000  0.4453000000000  0.4811830000000 1.0
C      1  0.5505060000000  0.5546810000000  0.4811840000000 1.0
C      1  0.5504870000000  0.4451810000000  0.5187670000000 1.0
C      1  0.5546860000000  0.4811800000000  0.5505090000000 1.0
C      1  0.4454390000000  0.5188540000000  0.5506580000000 1.0
C      1  0.4454460000000  0.4811270000000  0.4493420000000 1.0
C      1  0.5328620000000  0.5010900000000  0.4613160000000 1.0
C      1  0.5011110000000  0.4611470000000  0.5329810000000 1.0
C      1  0.4613540000000  0.5328070000000  0.5009020000000 1.0
C      1  0.5329490000000  0.4988480000000  0.5386690000000 1.0
C      1  0.4671750000000  0.5008940000000  0.5386420000000 1.0
C      1  0.4671330000000  0.4988870000000  0.4613460000000 1.0
C      1  0.5008890000000  0.5388360000000  0.4670140000000 1.0
C      1  0.4991030000000  0.4611480000000  0.4669970000000 1.0
C      1  0.4990840000000  0.5386190000000  0.5328540000000 1.0
C      1  0.4613530000000  0.4670800000000  0.4989660000000 1.0
C      1  0.5386310000000  0.5329090000000  0.4989620000000 1.0
C      1  0.5388980000000  0.4669880000000  0.5009730000000 1.0
C      1  0.4507520000000  0.5236330000000  0.5028960000000 1.0
C      1  0.5236730000000  0.5030070000000  0.4507250000000 1.0
C      1  0.5029110000000  0.4508350000000  0.5234920000000 1.0
C      1  0.4507580000000  0.4762470000000  0.4970340000000 1.0
C      1  0.5491890000000  0.5237040000000  0.4970250000000 1.0
C      1  0.5491820000000  0.4764900000000  0.5028230000000 1.0
C      1  0.5237610000000  0.4969860000000  0.5492580000000 1.0
C      1  0.4763690000000  0.5028950000000  0.5492200000000 1.0
C      1  0.4763130000000  0.4969840000000  0.4507400000000 1.0
C      1  0.5027950000000  0.5491940000000  0.4764520000000 1.0
C      1  0.4971780000000  0.4508470000000  0.4764700000000 1.0
C      1  0.4970640000000  0.5492230000000  0.5236980000000 1.0
C      1  0.4686560000000  0.5559310000000  0.4707470000000 1.0
C      1  0.5559360000000  0.4708420000000  0.4686130000000 1.0
C      1  0.4708350000000  0.4687900000000  0.5559180000000 1.0
C      1  0.4685930000000  0.4441490000000  0.5292870000000 1.0
C      1  0.5313300000000  0.5558630000000  0.5292530000000 1.0
C      1  0.5313460000000  0.4440900000000  0.4706510000000 1.0
C      1  0.5558660000000  0.5291910000000  0.5314040000000 1.0
C      1  0.4440300000000  0.4708050000000  0.5314000000000 1.0
C      1  0.4441290000000  0.5291310000000  0.4686900000000 1.0
C      1  0.4707480000000  0.5313200000000  0.4440290000000 1.0
C      1  0.5292510000000  0.4687170000000  0.4440040000000 1.0
C      1  0.5292070000000  0.5313830000000  0.5559760000000 1.0
C      1  0.5129090000000  0.4187670000000  0.5243540000000 1.0
C      1  0.4176290000000  0.5248860000000  0.5128380000000 1.0
C      1  0.5249100000000  0.5128150000000  0.4175630000000 1.0
C      1  0.5130560000000  0.5812200000000  0.4756100000000 1.0
C      1  0.4869790000000  0.4188160000000  0.4756400000000 1.0
C      1  0.4872050000000  0.5823590000000  0.5248380000000 1.0
C      1  0.4176370000000  0.4750990000000  0.4871670000000 1.0
C      1  0.5823340000000  0.5248710000000  0.4872260000000 1.0
C      1  0.5812080000000  0.4755940000000  0.5130290000000 1.0
C      1  0.5249180000000  0.4872440000000  0.5823970000000 1.0
C      1  0.4750950000000  0.5128940000000  0.5823940000000 1.0
C      1  0.4750810000000  0.4872120000000  0.4175670000000 1.0
C      1  0.4175000000000  0.4753960000000  0.5012660000000 1.0
C      1  0.4753460000000  0.5013040000000  0.4174550000000 1.0
C      1  0.5009780000000  0.4176800000000  0.4752890000000 1.0
C      1  0.4175140000000  0.5246050000000  0.4987360000000 1.0
C      1  0.5823020000000  0.4754140000000  0.4990160000000 1.0
C      1  0.5824660000000  0.5246530000000  0.5013260000000 1.0
C      1  0.4753680000000  0.4987960000000  0.5825280000000 1.0
C      1  0.5246250000000  0.5013380000000  0.5825340000000 1.0
C      1  0.5246460000000  0.4987240000000  0.4174380000000 1.0
C      1  0.5013060000000  0.5824920000000  0.5246650000000 1.0
C      1  0.4989070000000  0.4176890000000  0.5246820000000 1.0
C      1  0.4990450000000  0.5823190000000  0.4753780000000 1.0
C      1  0.5530970000000  0.4979870000000  0.4727180000000 1.0
C      1  0.4979700000000  0.4728500000000  0.5531440000000 1.0
C      1  0.4727110000000  0.5531300000000  0.4979020000000 1.0
C      1  0.5530760000000  0.5021530000000  0.5272460000000 1.0
C      1  0.4468760000000  0.4978420000000  0.5272080000000 1.0
C      1  0.4469120000000  0.5020230000000  0.4727910000000 1.0
C      1  0.4978320000000  0.5271710000000  0.4467720000000 1.0
C      1  0.5021570000000  0.4728360000000  0.4467630000000 1.0
C      1  0.5021610000000  0.5271900000000  0.5531360000000 1.0
C      1  0.4726680000000  0.4468760000000  0.5021700000000 1.0
C      1  0.5272500000000  0.5531060000000  0.5021980000000 1.0
C      1  0.5273220000000  0.4468140000000  0.4977880000000 1.0
C      1  0.5467500000000  0.4776890000000  0.4591130000000 1.0
C      1  0.4775910000000  0.4592580000000  0.5467590000000 1.0
C      1  0.4591580000000  0.5467220000000  0.4775650000000 1.0
C      1  0.5466830000000  0.5223510000000  0.5408990000000 1.0
C      1  0.4532620000000  0.4775960000000  0.5408860000000 1.0
C      1  0.4532900000000  0.5223060000000  0.4591560000000 1.0
C      1  0.4774930000000  0.5408370000000  0.4532080000000 1.0
C      1  0.5225030000000  0.4591960000000  0.4531680000000 1.0
C      1  0.5224100000000  0.5408620000000  0.5467700000000 1.0
C      1  0.4591010000000  0.4533110000000  0.5224220000000 1.0
C      1  0.5408330000000  0.5466840000000  0.5224330000000 1.0
C      1  0.5408530000000  0.4532690000000  0.4774410000000 1.0
C      1  0.5043040000000  0.5138880000000  0.5252810000000 1.0
C      1  0.5139560000000  0.5252890000000  0.5041910000000 1.0
C      1  0.5253460000000  0.5041280000000  0.5140060000000 1.0
C      1  0.5041900000000  0.4859520000000  0.4746470000000 1.0
C      1  0.4958180000000  0.5140230000000  0.4746100000000 1.0
C      1  0.4959680000000  0.4858990000000  0.5253300000000 1.0
C      1  0.5141450000000  0.4746850000000  0.4958570000000 1.0
C      1  0.4860600000000  0.5251950000000  0.4957350000000 1.0
C      1  0.4860470000000  0.4747000000000  0.5041790000000 1.0
C      1  0.5252240000000  0.4958350000000  0.4859820000000 1.0
C      1  0.4747290000000  0.5041220000000  0.4860160000000 1.0
C      1  0.4747640000000  0.4956880000000  0.5139270000000 1.0
C      1  0.5513230000000  0.4486460000000  0.5513730000000 1.0
C      1  0.4484200000000  0.5515980000000  0.5515520000000 1.0
C      1  0.5515160000000  0.5514480000000  0.4485020000000 1.0
C      1  0.4484910000000  0.4485400000000  0.4484930000000 1.0
END
