TITL C-19564-5806-5 9.29601767266892 1000000 -3672.84720388296 0 0 520 (C1) n - 1
REM
REM in /rds/project/t2_vol4/rds-t2-cs072/BORA/CARBON/from-Arr/AIRSS/Generating-Clusters/GAP-ML-2020/Higher-Symm/Selected-Sizes/Larger-Clusters/Only-C240
REM
REM
REM
REM
REM
REM ./C.cell (db1db5b03a21c153a00b653f6831bbfd)
REM AIRSS Version 0.9.1 bugfix July 2018 build 013d7b7c2542+ Fri, 06 Jul 2018 19:26:36 +0100
REM compiler GCC version 9.3.0
REM options -cpp -mtune=generic -march=x86-64 -g -O0
REM seed -430239945 -205098491 919699051 -199206537 591819434 1317574213 -1790949003 559807682 -693670629 876497190 1958912019 -711228476 1927775230 1648351170 -694270264 -1910789397 -1872645264 -2109168373 -2123425878 1878090479 -434021181 1177341775 457157805 -1651003994 -756296300 1088756203 -1056202807 -364291182 450226333 2064729808 -1534698829 222488359 834084948
REM
CELL 1.54180  100.00000  100.00000  100.00000   90.00000   90.00000   90.00000
LATT -1
SFAC C  
C      1  0.5371040000000  0.5671190000000  0.4845140000000 1.0
C      1  0.5108240000000  0.5674090000000  0.4616670000000 1.0
C      1  0.4769440000000  0.5679520000000  0.4668860000000 1.0
C      1  0.4605050000000  0.5669120000000  0.4982730000000 1.0
C      1  0.4746990000000  0.5674490000000  0.5301250000000 1.0
C      1  0.5077210000000  0.5666860000000  0.5387240000000 1.0
C      1  0.5360480000000  0.5671890000000  0.5184780000000 1.0
C      1  0.5191720000000  0.5329340000000  0.4747190000000 1.0
C      1  0.4908740000000  0.5361430000000  0.4716250000000 1.0
C      1  0.4687680000000  0.5392670000000  0.4885680000000 1.0
C      1  0.4736810000000  0.5313530000000  0.5131740000000 1.0
C      1  0.4962050000000  0.5362590000000  0.5299160000000 1.0
C      1  0.5205300000000  0.5317570000000  0.5230030000000 1.0
C      1  0.5314180000000  0.5364200000000  0.4972570000000 1.0
C      1  0.4891530000000  0.4665310000000  0.4405730000000 1.0
C      1  0.4479350000000  0.4652400000000  0.4734450000000 1.0
C      1  0.4424860000000  0.4708270000000  0.5245510000000 1.0
C      1  0.4852420000000  0.4639140000000  0.5558490000000 1.0
C      1  0.5364470000000  0.4704740000000  0.5500140000000 1.0
C      1  0.5572180000000  0.4635830000000  0.5014170000000 1.0
C      1  0.5416900000000  0.4697990000000  0.4519360000000 1.0
C      1  0.4534690000000  0.5130760000000  0.5411100000000 1.0
C      1  0.5057290000000  0.5200880000000  0.5634020000000 1.0
C      1  0.5507000000000  0.5122220000000  0.5360370000000 1.0
C      1  0.5613960000000  0.5198030000000  0.4804250000000 1.0
C      1  0.5252720000000  0.5139410000000  0.4420250000000 1.0
C      1  0.4687140000000  0.5173090000000  0.4465280000000 1.0
C      1  0.4362290000000  0.5206640000000  0.4910880000000 1.0
C      1  0.5647930000000  0.4522830000000  0.5056390000000 1.0
C      1  0.5530710000000  0.4644670000000  0.4464620000000 1.0
C      1  0.4899380000000  0.4611250000000  0.4281860000000 1.0
C      1  0.4382970000000  0.4592950000000  0.4657610000000 1.0
C      1  0.4297200000000  0.4660780000000  0.5250950000000 1.0
C      1  0.4803770000000  0.4523980000000  0.5625250000000 1.0
C      1  0.5400350000000  0.4661580000000  0.5624440000000 1.0
C      1  0.4392880000000  0.4605670000000  0.4522820000000 1.0
C      1  0.4217850000000  0.4651540000000  0.5141600000000 1.0
C      1  0.4677690000000  0.4577220000000  0.5672510000000 1.0
C      1  0.5314310000000  0.4651460000000  0.5728130000000 1.0
C      1  0.5722190000000  0.4572800000000  0.5168460000000 1.0
C      1  0.5651810000000  0.4645040000000  0.4524130000000 1.0
C      1  0.5012760000000  0.4621820000000  0.4208810000000 1.0
C      1  0.5262320000000  0.5187800000000  0.5424860000000 1.0
C      1  0.5491520000000  0.5171600000000  0.5054880000000 1.0
C      1  0.5366650000000  0.5194930000000  0.4647760000000 1.0
C      1  0.4949320000000  0.5182440000000  0.4513540000000 1.0
C      1  0.4580200000000  0.5191240000000  0.4741300000000 1.0
C      1  0.4526410000000  0.5194780000000  0.5154620000000 1.0
C      1  0.4835360000000  0.5176430000000  0.5462250000000 1.0
C      1  0.5605320000000  0.4523320000000  0.4728160000000 1.0
C      1  0.5176680000000  0.4523850000000  0.4375180000000 1.0
C      1  0.4618600000000  0.4498250000000  0.4490770000000 1.0
C      1  0.4358640000000  0.4522850000000  0.4985430000000 1.0
C      1  0.4570580000000  0.4510660000000  0.5464080000000 1.0
C      1  0.5129770000000  0.4524460000000  0.5632420000000 1.0
C      1  0.5539070000000  0.4510390000000  0.5317590000000 1.0
C      1  0.4569770000000  0.5186120000000  0.5669670000000 1.0
C      1  0.5257200000000  0.5213170000000  0.5767550000000 1.0
C      1  0.5750420000000  0.5175730000000  0.5270470000000 1.0
C      1  0.5698630000000  0.5218810000000  0.4582190000000 1.0
C      1  0.5107870000000  0.5202280000000  0.4210190000000 1.0
C      1  0.4445470000000  0.5190110000000  0.4428750000000 1.0
C      1  0.4192290000000  0.5220230000000  0.5078370000000 1.0
C      1  0.4611760000000  0.4969620000000  0.5059990000000 1.0
C      1  0.4817910000000  0.4933030000000  0.5335060000000 1.0
C      1  0.5141320000000  0.4966750000000  0.5363200000000 1.0
C      1  0.5363130000000  0.4929370000000  0.5087610000000 1.0
C      1  0.5318710000000  0.4965960000000  0.4774620000000 1.0
C      1  0.5007570000000  0.4942500000000  0.4610780000000 1.0
C      1  0.4769220000000  0.4949030000000  0.4706150000000 1.0
C      1  0.4856260000000  0.5031280000000  0.4349600000000 1.0
C      1  0.4404010000000  0.5047120000000  0.4727840000000 1.0
C      1  0.4393820000000  0.5010820000000  0.5245320000000 1.0
C      1  0.4870750000000  0.5041710000000  0.5644120000000 1.0
C      1  0.5373940000000  0.5002320000000  0.5530910000000 1.0
C      1  0.5657550000000  0.5034560000000  0.4980340000000 1.0
C      1  0.5446390000000  0.5015010000000  0.4512280000000 1.0
C      1  0.4691290000000  0.4828410000000  0.5509060000000 1.0
C      1  0.5172870000000  0.4851130000000  0.5586930000000 1.0
C      1  0.5560500000000  0.4821330000000  0.5182320000000 1.0
C      1  0.5533700000000  0.4849690000000  0.4692690000000 1.0
C      1  0.5077160000000  0.4851760000000  0.4393350000000 1.0
C      1  0.4582290000000  0.4836530000000  0.4587970000000 1.0
C      1  0.4384220000000  0.4856340000000  0.5038930000000 1.0
C      1  0.5763090000000  0.5417150000000  0.4845990000000 1.0
C      1  0.5359160000000  0.5448230000000  0.4312090000000 1.0
C      1  0.4675340000000  0.5408420000000  0.4291190000000 1.0
C      1  0.4245830000000  0.5427200000000  0.4813300000000 1.0
C      1  0.4388680000000  0.5442390000000  0.5462410000000 1.0
C      1  0.4990730000000  0.5416000000000  0.5772600000000 1.0
C      1  0.5594900000000  0.5432850000000  0.5497310000000 1.0
C      1  0.5032270000000  0.5612050000000  0.5514220000000 1.0
C      1  0.5435020000000  0.5610680000000  0.5292940000000 1.0
C      1  0.5504230000000  0.5614750000000  0.4862350000000 1.0
C      1  0.5199870000000  0.5618800000000  0.4519400000000 1.0
C      1  0.4749120000000  0.5615630000000  0.4539900000000 1.0
C      1  0.4484940000000  0.5622310000000  0.4911970000000 1.0
C      1  0.4623860000000  0.5616340000000  0.5350540000000 1.0
C      1  0.5297320000000  0.5211700000000  0.4781860000000 1.0
C      1  0.5047230000000  0.5171680000000  0.4624600000000 1.0
C      1  0.4726040000000  0.5186080000000  0.4752330000000 1.0
C      1  0.4647050000000  0.5211790000000  0.5057110000000 1.0
C      1  0.4796740000000  0.5161660000000  0.5320010000000 1.0
C      1  0.5145800000000  0.5205360000000  0.5325880000000 1.0
C      1  0.5359930000000  0.5158080000000  0.5124040000000 1.0
C      1  0.4697210000000  0.5574280000000  0.5044800000000 1.0
C      1  0.4853260000000  0.5586700000000  0.5268000000000 1.0
C      1  0.5122380000000  0.5578030000000  0.5284400000000 1.0
C      1  0.5304620000000  0.5585220000000  0.5087780000000 1.0
C      1  0.5259270000000  0.5585340000000  0.4819080000000 1.0
C      1  0.5026850000000  0.5583810000000  0.4690190000000 1.0
C      1  0.4765720000000  0.5599280000000  0.4785720000000 1.0
C      1  0.4693250000000  0.5078560000000  0.5013610000000 1.0
C      1  0.4781900000000  0.5038530000000  0.5246800000000 1.0
C      1  0.5081670000000  0.5076360000000  0.5290160000000 1.0
C      1  0.5286340000000  0.5034160000000  0.5149740000000 1.0
C      1  0.5270780000000  0.5082010000000  0.4852880000000 1.0
C      1  0.5084910000000  0.5045410000000  0.4683730000000 1.0
C      1  0.4806420000000  0.5073650000000  0.4775130000000 1.0
C      1  0.4278530000000  0.5116690000000  0.5446340000000 1.0
C      1  0.4908640000000  0.5132600000000  0.5860670000000 1.0
C      1  0.5597250000000  0.5109440000000  0.5604080000000 1.0
C      1  0.5865230000000  0.5122890000000  0.4899930000000 1.0
C      1  0.5473270000000  0.5128620000000  0.4280630000000 1.0
C      1  0.4717100000000  0.5122710000000  0.4188860000000 1.0
C      1  0.4180190000000  0.5132130000000  0.4712370000000 1.0
C      1  0.4983860000000  0.5251660000000  0.5514530000000 1.0
C      1  0.5395810000000  0.5233280000000  0.5344410000000 1.0
C      1  0.5514250000000  0.5250100000000  0.4901250000000 1.0
C      1  0.5259820000000  0.5243890000000  0.4536710000000 1.0
C      1  0.4796550000000  0.5247000000000  0.4534620000000 1.0
C      1  0.4492530000000  0.5262230000000  0.4865220000000 1.0
C      1  0.4578430000000  0.5240280000000  0.5302570000000 1.0
C      1  0.4755360000000  0.4691120000000  0.5450970000000 1.0
C      1  0.5217160000000  0.4735310000000  0.5496880000000 1.0
C      1  0.5487120000000  0.4685090000000  0.5129440000000 1.0
C      1  0.5440770000000  0.4724380000000  0.4668030000000 1.0
C      1  0.5030850000000  0.4711580000000  0.4463610000000 1.0
C      1  0.4607350000000  0.4695950000000  0.4666750000000 1.0
C      1  0.4461710000000  0.4739760000000  0.5102030000000 1.0
C      1  0.5512810000000  0.4627180000000  0.4759570000000 1.0
C      1  0.5163710000000  0.4645230000000  0.4449750000000 1.0
C      1  0.4696390000000  0.4599100000000  0.4578320000000 1.0
C      1  0.4471790000000  0.4622980000000  0.4996680000000 1.0
C      1  0.4640160000000  0.4610150000000  0.5371770000000 1.0
C      1  0.5113650000000  0.4619490000000  0.5515130000000 1.0
C      1  0.5433430000000  0.4606380000000  0.5260380000000 1.0
C      1  0.5259620000000  0.4593430000000  0.4747130000000 1.0
C      1  0.5027220000000  0.4578330000000  0.4675300000000 1.0
C      1  0.4781070000000  0.4532470000000  0.4691470000000 1.0
C      1  0.4614470000000  0.4600470000000  0.5050180000000 1.0
C      1  0.4720240000000  0.4538950000000  0.5255740000000 1.0
C      1  0.5126890000000  0.4597190000000  0.5361570000000 1.0
C      1  0.5299780000000  0.4535360000000  0.5207850000000 1.0
C      1  0.4943660000000  0.4234020000000  0.4697940000000 1.0
C      1  0.4726110000000  0.4248840000000  0.4869840000000 1.0
C      1  0.4715670000000  0.4254280000000  0.5139490000000 1.0
C      1  0.4921060000000  0.4257320000000  0.5309410000000 1.0
C      1  0.5189250000000  0.4251940000000  0.5258330000000 1.0
C      1  0.5317540000000  0.4249810000000  0.5021520000000 1.0
C      1  0.5210050000000  0.4262590000000  0.4771540000000 1.0
C      1  0.4331030000000  0.4942510000000  0.4631530000000 1.0
C      1  0.4258430000000  0.4959730000000  0.5225490000000 1.0
C      1  0.4794310000000  0.4934940000000  0.5741180000000 1.0
C      1  0.5385760000000  0.4951900000000  0.5666770000000 1.0
C      1  0.5767640000000  0.4926220000000  0.5033660000000 1.0
C      1  0.5576030000000  0.4963550000000  0.4472280000000 1.0
C      1  0.4919800000000  0.4964150000000  0.4224300000000 1.0
C      1  0.4877930000000  0.4849300000000  0.5132790000000 1.0
C      1  0.5015350000000  0.4857620000000  0.5190160000000 1.0
C      1  0.5158480000000  0.4841460000000  0.5046380000000 1.0
C      1  0.5161400000000  0.4815300000000  0.4905100000000 1.0
C      1  0.5042150000000  0.4855310000000  0.4829570000000 1.0
C      1  0.4903050000000  0.4811610000000  0.4869590000000 1.0
C      1  0.4823340000000  0.4864230000000  0.4988440000000 1.0
C      1  0.4536230000000  0.5079910000000  0.4654220000000 1.0
C      1  0.4421360000000  0.5091070000000  0.5119880000000 1.0
C      1  0.4765050000000  0.5071350000000  0.5536950000000 1.0
C      1  0.5248380000000  0.5084920000000  0.5534200000000 1.0
C      1  0.5575840000000  0.5063140000000  0.5105910000000 1.0
C      1  0.5473190000000  0.5087980000000  0.4638850000000 1.0
C      1  0.4988390000000  0.5081150000000  0.4413200000000 1.0
C      1  0.5250910000000  0.5450960000000  0.5717840000000 1.0
C      1  0.5722080000000  0.5432310000000  0.5260050000000 1.0
C      1  0.5656110000000  0.5458170000000  0.4604170000000 1.0
C      1  0.5095190000000  0.5450000000000  0.4245170000000 1.0
C      1  0.4468330000000  0.5441340000000  0.4450500000000 1.0
C      1  0.4243870000000  0.5457800000000  0.5081760000000 1.0
C      1  0.4592000000000  0.5441150000000  0.5639100000000 1.0
C      1  0.4311550000000  0.5332850000000  0.4725070000000 1.0
C      1  0.4363850000000  0.5332120000000  0.5377420000000 1.0
C      1  0.4888810000000  0.5326810000000  0.5721900000000 1.0
C      1  0.5512000000000  0.5324770000000  0.5536910000000 1.0
C      1  0.5738930000000  0.5321200000000  0.4950460000000 1.0
C      1  0.5421570000000  0.5340740000000  0.4382210000000 1.0
C      1  0.4787170000000  0.5321030000000  0.4302170000000 1.0
C      1  0.4925800000000  0.5584170000000  0.4391610000000 1.0
C      1  0.4464860000000  0.5591440000000  0.4663750000000 1.0
C      1  0.4429560000000  0.5590110000000  0.5209320000000 1.0
C      1  0.4807240000000  0.5582540000000  0.5582440000000 1.0
C      1  0.5335760000000  0.5584250000000  0.5510010000000 1.0
C      1  0.5624130000000  0.5578690000000  0.5064290000000 1.0
C      1  0.5436630000000  0.5593650000000  0.4565910000000 1.0
C      1  0.5853280000000  0.5031340000000  0.5113130000000 1.0
C      1  0.5659750000000  0.5075620000000  0.4427400000000 1.0
C      1  0.4947720000000  0.5068090000000  0.4125840000000 1.0
C      1  0.4287630000000  0.5047420000000  0.4523510000000 1.0
C      1  0.4164010000000  0.5070600000000  0.5235150000000 1.0
C      1  0.4700350000000  0.5043030000000  0.5806350000000 1.0
C      1  0.5416850000000  0.5061020000000  0.5758970000000 1.0
C      1  0.5542430000000  0.5305980000000  0.5097660000000 1.0
C      1  0.5431060000000  0.5327650000000  0.4629070000000 1.0
C      1  0.4977730000000  0.5315380000000  0.4452140000000 1.0
C      1  0.4552450000000  0.5322960000000  0.4675090000000 1.0
C      1  0.4462090000000  0.5327530000000  0.5150980000000 1.0
C      1  0.4785460000000  0.5312940000000  0.5497220000000 1.0
C      1  0.5268950000000  0.5320560000000  0.5490210000000 1.0
C      1  0.5654910000000  0.5344410000000  0.4519190000000 1.0
C      1  0.5031320000000  0.5329970000000  0.4198520000000 1.0
C      1  0.4391630000000  0.5322380000000  0.4472930000000 1.0
C      1  0.4207530000000  0.5342680000000  0.5157640000000 1.0
C      1  0.4626580000000  0.5318940000000  0.5707300000000 1.0
C      1  0.5332220000000  0.5335620000000  0.5737330000000 1.0
C      1  0.5778350000000  0.5309150000000  0.5209910000000 1.0
C      1  0.5008420000000  0.4316270000000  0.5398510000000 1.0
C      1  0.5325970000000  0.4237510000000  0.5260450000000 1.0
C      1  0.5398880000000  0.4285730000000  0.4914260000000 1.0
C      1  0.5173690000000  0.4273440000000  0.4638610000000 1.0
C      1  0.4815940000000  0.4235960000000  0.4643170000000 1.0
C      1  0.4620790000000  0.4311330000000  0.4936450000000 1.0
C      1  0.4684960000000  0.4236400000000  0.5271990000000 1.0
C      1  0.4495030000000  0.4342940000000  0.4742740000000 1.0
C      1  0.4460010000000  0.4327500000000  0.5243990000000 1.0
C      1  0.4839590000000  0.4398150000000  0.5559520000000 1.0
C      1  0.5344000000000  0.4331500000000  0.5482720000000 1.0
C      1  0.5575550000000  0.4397300000000  0.5042750000000 1.0
C      1  0.5380910000000  0.4365270000000  0.4571510000000 1.0
C      1  0.4891480000000  0.4339210000000  0.4443070000000 1.0
C      1  0.5710320000000  0.4822680000000  0.5133050000000 1.0
C      1  0.5621720000000  0.4874690000000  0.4571980000000 1.0
C      1  0.5013840000000  0.4863320000000  0.4253730000000 1.0
C      1  0.4429350000000  0.4847350000000  0.4560600000000 1.0
C      1  0.4253810000000  0.4877340000000  0.5111100000000 1.0
C      1  0.4708690000000  0.4830950000000  0.5665900000000 1.0
C      1  0.5272920000000  0.4873470000000  0.5696930000000 1.0
C      1  0.4738900000000  0.5833100000000  0.5097080000000 1.0
C      1  0.4918560000000  0.5827790000000  0.5270090000000 1.0
C      1  0.5165290000000  0.5830450000000  0.5239810000000 1.0
C      1  0.5293470000000  0.5831140000000  0.5026750000000 1.0
C      1  0.5205470000000  0.5831140000000  0.4794080000000 1.0
C      1  0.4968440000000  0.5837370000000  0.4714290000000 1.0
C      1  0.4760970000000  0.5817500000000  0.4850150000000 1.0
C      1  0.4798310000000  0.4808440000000  0.5254060000000 1.0
C      1  0.5070320000000  0.4831160000000  0.5327380000000 1.0
C      1  0.5287860000000  0.4805660000000  0.5120600000000 1.0
C      1  0.5292160000000  0.4820300000000  0.4839170000000 1.0
C      1  0.5068790000000  0.4819280000000  0.4674970000000 1.0
C      1  0.4810160000000  0.4799660000000  0.4757220000000 1.0
C      1  0.4670370000000  0.4835570000000  0.5002770000000 1.0
C      1  0.5321880000000  0.5115640000000  0.5839130000000 1.0
C      1  0.5844900000000  0.5077710000000  0.5239240000000 1.0
C      1  0.5759940000000  0.5125120000000  0.4502690000000 1.0
C      1  0.5075010000000  0.5113500000000  0.4110090000000 1.0
C      1  0.4355370000000  0.5086170000000  0.4412660000000 1.0
C      1  0.4105770000000  0.5124740000000  0.5124940000000 1.0
C      1  0.4579020000000  0.5089550000000  0.5770360000000 1.0
C      1  0.4231140000000  0.5164840000000  0.4580100000000 1.0
C      1  0.4200940000000  0.5166560000000  0.5333220000000 1.0
C      1  0.4767770000000  0.5163200000000  0.5840980000000 1.0
C      1  0.5504170000000  0.5158680000000  0.5704330000000 1.0
C      1  0.5875950000000  0.5152330000000  0.5042360000000 1.0
C      1  0.5588520000000  0.5175000000000  0.4354370000000 1.0
C      1  0.4847970000000  0.5169110000000  0.4134090000000 1.0
C      1  0.4304280000000  0.5179950000000  0.4779820000000 1.0
C      1  0.4394610000000  0.5194210000000  0.5434810000000 1.0
C      1  0.4943090000000  0.5174180000000  0.5721400000000 1.0
C      1  0.5560190000000  0.5185960000000  0.5493120000000 1.0
C      1  0.5723040000000  0.5168170000000  0.4896220000000 1.0
C      1  0.5370160000000  0.5203300000000  0.4340660000000 1.0
C      1  0.4746170000000  0.5163740000000  0.4328160000000 1.0
C      1  0.4396640000000  0.4739740000000  0.4470720000000 1.0
C      1  0.4166670000000  0.4769350000000  0.5077610000000 1.0
C      1  0.4641930000000  0.4713860000000  0.5706780000000 1.0
C      1  0.5262740000000  0.4768810000000  0.5791970000000 1.0
C      1  0.5765870000000  0.4708660000000  0.5194210000000 1.0
C      1  0.5715560000000  0.4767390000000  0.4563940000000 1.0
C      1  0.5060270000000  0.4752970000000  0.4175850000000 1.0
C      1  0.5046410000000  0.5800450000000  0.5310600000000 1.0
C      1  0.5276700000000  0.5804780000000  0.5165020000000 1.0
C      1  0.5303310000000  0.5804110000000  0.4892920000000 1.0
C      1  0.5106910000000  0.5807350000000  0.4702450000000 1.0
C      1  0.4836690000000  0.5806840000000  0.4729190000000 1.0
C      1  0.4692210000000  0.5799320000000  0.4967900000000 1.0
C      1  0.4787140000000  0.5805170000000  0.5222170000000 1.0
C      1  0.5210340000000  0.4339160000000  0.5497520000000 1.0
C      1  0.5514040000000  0.4326150000000  0.5154680000000 1.0
C      1  0.5435650000000  0.4340500000000  0.4694970000000 1.0
C      1  0.5023560000000  0.4331920000000  0.4478270000000 1.0
C      1  0.4598810000000  0.4308280000000  0.4661680000000 1.0
C      1  0.4473780000000  0.4339740000000  0.5110420000000 1.0
C      1  0.4745500000000  0.4328200000000  0.5475090000000 1.0
C      1  0.5416000000000  0.4732910000000  0.5355080000000 1.0
C      1  0.5532230000000  0.4700220000000  0.4883300000000 1.0
C      1  0.5267810000000  0.4746580000000  0.4489310000000 1.0
C      1  0.4776600000000  0.4706010000000  0.4501030000000 1.0
C      1  0.4473590000000  0.4713610000000  0.4873110000000 1.0
C      1  0.4551530000000  0.4736590000000  0.5330800000000 1.0
C      1  0.4989130000000  0.4702750000000  0.5542490000000 1.0
C      1  0.5710460000000  0.4580240000000  0.4650630000000 1.0
C      1  0.5156090000000  0.4580590000000  0.4242590000000 1.0
C      1  0.4507850000000  0.4566910000000  0.4431490000000 1.0
C      1  0.4234930000000  0.4591420000000  0.5003450000000 1.0
C      1  0.4552620000000  0.4568350000000  0.5592650000000 1.0
C      1  0.5175780000000  0.4592240000000  0.5746400000000 1.0
C      1  0.5669390000000  0.4565360000000  0.5306610000000 1.0
C      1  0.5137240000000  0.5597490000000  0.4904440000000 1.0
C      1  0.5013610000000  0.5597920000000  0.4835730000000 1.0
C      1  0.4880250000000  0.5595010000000  0.4885400000000 1.0
C      1  0.4843830000000  0.5584520000000  0.5021650000000 1.0
C      1  0.4925160000000  0.5592620000000  0.5137910000000 1.0
C      1  0.5066880000000  0.5592970000000  0.5147540000000 1.0
C      1  0.5162130000000  0.5596280000000  0.5044010000000 1.0
C      1  0.4911340000000  0.5518070000000  0.5511850000000 1.0
C      1  0.5355940000000  0.5514570000000  0.5384790000000 1.0
C      1  0.5530180000000  0.5517120000000  0.4978170000000 1.0
C      1  0.5309880000000  0.5524300000000  0.4572320000000 1.0
C      1  0.4858470000000  0.5517250000000  0.4496900000000 1.0
C      1  0.4506210000000  0.5535510000000  0.4787780000000 1.0
C      1  0.4548120000000  0.5521700000000  0.5255910000000 1.0
C      1  0.5101770000000  0.5473750000000  0.5724900000000 1.0
C      1  0.5636040000000  0.5471350000000  0.5376720000000 1.0
C      1  0.5694410000000  0.5477910000000  0.4748360000000 1.0
C      1  0.5231570000000  0.5486630000000  0.4300560000000 1.0
C      1  0.4597910000000  0.5468300000000  0.4381970000000 1.0
C      1  0.4267990000000  0.5482570000000  0.4934250000000 1.0
C      1  0.4497290000000  0.5480600000000  0.5529640000000 1.0
C      1  0.5038170000000  0.4960120000000  0.4474480000000 1.0
C      1  0.4618870000000  0.4949320000000  0.4679920000000 1.0
C      1  0.4468420000000  0.4982600000000  0.5020800000000 1.0
C      1  0.4769740000000  0.4938910000000  0.5467700000000 1.0
C      1  0.5138490000000  0.4979530000000  0.5511170000000 1.0
C      1  0.5504340000000  0.4931670000000  0.5113140000000 1.0
C      1  0.5466060000000  0.4976940000000  0.4746420000000 1.0
C      1  0.4240240000000  0.5297390000000  0.5293890000000 1.0
C      1  0.4751090000000  0.5291290000000  0.5775690000000 1.0
C      1  0.5457480000000  0.5289700000000  0.5675530000000 1.0
C      1  0.5818820000000  0.5281950000000  0.5073520000000 1.0
C      1  0.5568980000000  0.5304930000000  0.4407410000000 1.0
C      1  0.4888510000000  0.5294900000000  0.4190860000000 1.0
C      1  0.4295130000000  0.5294610000000  0.4578340000000 1.0
C      1  0.5458970000000  0.4898950000000  0.4977430000000 1.0
C      1  0.5236120000000  0.4967700000000  0.4639240000000 1.0
C      1  0.4859390000000  0.4922200000000  0.4586410000000 1.0
C      1  0.4572100000000  0.4917220000000  0.4811770000000 1.0
C      1  0.4633430000000  0.4962190000000  0.5218480000000 1.0
C      1  0.4910800000000  0.4905350000000  0.5454520000000 1.0
C      1  0.5289790000000  0.4958160000000  0.5300270000000 1.0
C      1  0.4512490000000  0.4703650000000  0.5627030000000 1.0
C      1  0.5125300000000  0.4715190000000  0.5809300000000 1.0
C      1  0.5714600000000  0.4699830000000  0.5336970000000 1.0
C      1  0.5766180000000  0.4713180000000  0.4691120000000 1.0
C      1  0.5199110000000  0.4719480000000  0.4211030000000 1.0
C      1  0.4505030000000  0.4704320000000  0.4376230000000 1.0
C      1  0.4182680000000  0.4715120000000  0.4940170000000 1.0
C      1  0.4917320000000  0.4500400000000  0.4704080000000 1.0
C      1  0.4737420000000  0.4564820000000  0.4823640000000 1.0
C      1  0.4684880000000  0.4493320000000  0.5117970000000 1.0
C      1  0.4858300000000  0.4566290000000  0.5270150000000 1.0
C      1  0.5170710000000  0.4488150000000  0.5277260000000 1.0
C      1  0.5281590000000  0.4560520000000  0.5068880000000 1.0
C      1  0.5136370000000  0.4546180000000  0.4763590000000 1.0
C      1  0.5025190000000  0.4823350000000  0.5636070000000 1.0
C      1  0.5525220000000  0.4843780000000  0.5340680000000 1.0
C      1  0.5613740000000  0.4822000000000  0.4828060000000 1.0
C      1  0.5242880000000  0.4865690000000  0.4396890000000 1.0
C      1  0.4684050000000  0.4833610000000  0.4455040000000 1.0
C      1  0.4371330000000  0.4828280000000  0.4885120000000 1.0
C      1  0.4544510000000  0.4848950000000  0.5440120000000 1.0
C      1  0.4956210000000  0.4252390000000  0.5171870000000 1.0
C      1  0.5100650000000  0.4285310000000  0.5141600000000 1.0
C      1  0.5175380000000  0.4255470000000  0.5012960000000 1.0
C      1  0.5116920000000  0.4298170000000  0.4882560000000 1.0
C      1  0.4963560000000  0.4281310000000  0.4841680000000 1.0
C      1  0.4852460000000  0.4243720000000  0.4932690000000 1.0
C      1  0.4846660000000  0.4282920000000  0.5076750000000 1.0
C      1  0.4651590000000  0.4804690000000  0.5231960000000 1.0
C      1  0.4963850000000  0.4777740000000  0.5415160000000 1.0
C      1  0.5295740000000  0.4802200000000  0.5275030000000 1.0
C      1  0.5404300000000  0.4770560000000  0.4929560000000 1.0
C      1  0.5213140000000  0.4813030000000  0.4626870000000 1.0
C      1  0.4858290000000  0.4768070000000  0.4614150000000 1.0
C      1  0.4606450000000  0.4792920000000  0.4876550000000 1.0
C      1  0.5117470000000  0.5582010000000  0.5623330000000 1.0
C      1  0.5572200000000  0.5577360000000  0.5295670000000 1.0
C      1  0.5593220000000  0.5587390000000  0.4755880000000 1.0
C      1  0.5167890000000  0.5589340000000  0.4385400000000 1.0
C      1  0.4625660000000  0.5579180000000  0.4478340000000 1.0
C      1  0.4360960000000  0.5592750000000  0.4973050000000 1.0
C      1  0.4591760000000  0.5584790000000  0.5484220000000 1.0
C      1  0.5406040000000  0.5399370000000  0.4748130000000 1.0
C      1  0.5054270000000  0.5384330000000  0.4545700000000 1.0
C      1  0.4672640000000  0.5392620000000  0.4684050000000 1.0
C      1  0.4535110000000  0.5400780000000  0.5057630000000 1.0
C      1  0.4768390000000  0.5378310000000  0.5375020000000 1.0
C      1  0.5160220000000  0.5393400000000  0.5438740000000 1.0
C      1  0.5430220000000  0.5374140000000  0.5144160000000 1.0
C      1  0.4619960000000  0.4343190000000  0.5075030000000 1.0
C      1  0.4790120000000  0.4250320000000  0.5362700000000 1.0
C      1  0.5145330000000  0.4341590000000  0.5363750000000 1.0
C      1  0.5394270000000  0.4248630000000  0.5138810000000 1.0
C      1  0.5345610000000  0.4279160000000  0.4787790000000 1.0
C      1  0.5042570000000  0.4260940000000  0.4602340000000 1.0
C      1  0.4707390000000  0.4240100000000  0.4729210000000 1.0
C      1  0.4281730000000  0.4993670000000  0.5508680000000 1.0
C      1  0.4946270000000  0.5010390000000  0.5908080000000 1.0
C      1  0.5654900000000  0.4985620000000  0.5588470000000 1.0
C      1  0.5901580000000  0.5000770000000  0.4851470000000 1.0
C      1  0.5454140000000  0.5006460000000  0.4222730000000 1.0
C      1  0.4652830000000  0.5002110000000  0.4174780000000 1.0
C      1  0.4127710000000  0.5010040000000  0.4739910000000 1.0
C      1  0.5211980000000  0.5463520000000  0.5321810000000 1.0
C      1  0.5386630000000  0.5470510000000  0.5045140000000 1.0
C      1  0.5280140000000  0.5470680000000  0.4724550000000 1.0
C      1  0.4962640000000  0.5469230000000  0.4623000000000 1.0
C      1  0.4662080000000  0.5493070000000  0.4789070000000 1.0
C      1  0.4642600000000  0.5465760000000  0.5128240000000 1.0
C      1  0.4877060000000  0.5471290000000  0.5354750000000 1.0
C      1  0.5261700000000  0.5560090000000  0.5617260000000 1.0
C      1  0.5662040000000  0.5545180000000  0.5185480000000 1.0
C      1  0.5556470000000  0.5568040000000  0.4615910000000 1.0
C      1  0.5037520000000  0.5559040000000  0.4327510000000 1.0
C      1  0.4495700000000  0.5555410000000  0.4540920000000 1.0
C      1  0.4338400000000  0.5567600000000  0.5115180000000 1.0
C      1  0.4680300000000  0.5551640000000  0.5595150000000 1.0
C      1  0.4446300000000  0.4965470000000  0.4855380000000 1.0
C      1  0.4519860000000  0.4987170000000  0.5333420000000 1.0
C      1  0.4982340000000  0.4961250000000  0.5567550000000 1.0
C      1  0.5429980000000  0.4980500000000  0.5387950000000 1.0
C      1  0.5555810000000  0.4957040000000  0.4885000000000 1.0
C      1  0.5298750000000  0.4995620000000  0.4483730000000 1.0
C      1  0.4790990000000  0.4943310000000  0.4455170000000 1.0
C      1  0.5592400000000  0.5365370000000  0.4974060000000 1.0
C      1  0.5349720000000  0.5374810000000  0.4514740000000 1.0
C      1  0.4841860000000  0.5366990000000  0.4439770000000 1.0
C      1  0.4452580000000  0.5380180000000  0.4765900000000 1.0
C      1  0.4487460000000  0.5370510000000  0.5289700000000 1.0
C      1  0.4897400000000  0.5368960000000  0.5573010000000 1.0
C      1  0.5400030000000  0.5363650000000  0.5436880000000 1.0
C      1  0.5052390000000  0.5299800000000  0.5395580000000 1.0
C      1  0.5344770000000  0.5275300000000  0.5209830000000 1.0
C      1  0.5385770000000  0.5303150000000  0.4860250000000 1.0
C      1  0.5138340000000  0.5286100000000  0.4615130000000 1.0
C      1  0.4783680000000  0.5297390000000  0.4674350000000 1.0
C      1  0.4592650000000  0.5312370000000  0.4955390000000 1.0
C      1  0.4722650000000  0.5278950000000  0.5277850000000 1.0
C      1  0.4496020000000  0.4343640000000  0.4878900000000 1.0
C      1  0.4565160000000  0.4301500000000  0.5327880000000 1.0
C      1  0.4976970000000  0.4362540000000  0.5527550000000 1.0
C      1  0.5406300000000  0.4303790000000  0.5363680000000 1.0
C      1  0.5519020000000  0.4362220000000  0.4914950000000 1.0
C      1  0.5249570000000  0.4344840000000  0.4539200000000 1.0
C      1  0.4782010000000  0.4306170000000  0.4518230000000 1.0
C      1  0.5512140000000  0.4371630000000  0.5294040000000 1.0
C      1  0.5543070000000  0.4402660000000  0.4777200000000 1.0
C      1  0.5153380000000  0.4400030000000  0.4445240000000 1.0
C      1  0.4650030000000  0.4363250000000  0.4533100000000 1.0
C      1  0.4408210000000  0.4388900000000  0.4988280000000 1.0
C      1  0.4609330000000  0.4372940000000  0.5443820000000 1.0
C      1  0.5106380000000  0.4391660000000  0.5588150000000 1.0
C      1  0.4609720000000  0.4890870000000  0.4220710000000 1.0
C      1  0.4202140000000  0.4896690000000  0.4727230000000 1.0
C      1  0.4337000000000  0.4891970000000  0.5562210000000 1.0
C      1  0.4917150000000  0.4896320000000  0.5839020000000 1.0
C      1  0.5692120000000  0.4884570000000  0.5520920000000 1.0
C      1  0.5836780000000  0.4887700000000  0.4892750000000 1.0
C      1  0.5386400000000  0.4901080000000  0.4198630000000 1.0
C      1  0.4906870000000  0.5242470000000  0.4935680000000 1.0
C      1  0.4875200000000  0.5303440000000  0.5067540000000 1.0
C      1  0.4980930000000  0.5327980000000  0.5155270000000 1.0
C      1  0.5115300000000  0.5323210000000  0.5114440000000 1.0
C      1  0.5171520000000  0.5336420000000  0.4987340000000 1.0
C      1  0.5103850000000  0.5333780000000  0.4864490000000 1.0
C      1  0.4966120000000  0.5331470000000  0.4844450000000 1.0
C      1  0.5286160000000  0.4826760000000  0.4255800000000 1.0
C      1  0.4597290000000  0.4807280000000  0.4332340000000 1.0
C      1  0.4233390000000  0.4803650000000  0.4834370000000 1.0
C      1  0.4451340000000  0.4814190000000  0.5554430000000 1.0
C      1  0.5011760000000  0.4802560000000  0.5783430000000 1.0
C      1  0.5656560000000  0.4809530000000  0.5410010000000 1.0
C      1  0.5760300000000  0.4796720000000  0.4810400000000 1.0
C      1  0.4997700000000  0.4711350000000  0.4610090000000 1.0
C      1  0.4695070000000  0.4711090000000  0.4791070000000 1.0
C      1  0.4617650000000  0.4741490000000  0.5102730000000 1.0
C      1  0.4855770000000  0.4703700000000  0.5338700000000 1.0
C      1  0.5180230000000  0.4737140000000  0.5344820000000 1.0
C      1  0.5355710000000  0.4696480000000  0.5052900000000 1.0
C      1  0.5298340000000  0.4732910000000  0.4720340000000 1.0
C      1  0.5080640000000  0.4447030000000  0.5155590000000 1.0
C      1  0.5133420000000  0.4530310000000  0.5028310000000 1.0
C      1  0.5094590000000  0.4465420000000  0.4886200000000 1.0
C      1  0.4943480000000  0.4443870000000  0.4841720000000 1.0
C      1  0.4829220000000  0.4501630000000  0.4915880000000 1.0
C      1  0.4827070000000  0.4463600000000  0.5057380000000 1.0
C      1  0.4939130000000  0.4530460000000  0.5146420000000 1.0
C      1  0.4905840000000  0.5091390000000  0.4883600000000 1.0
C      1  0.4830620000000  0.5025230000000  0.4994620000000 1.0
C      1  0.4882830000000  0.5019560000000  0.5132650000000 1.0
C      1  0.5031890000000  0.5024400000000  0.5162780000000 1.0
C      1  0.5149950000000  0.5009380000000  0.5068290000000 1.0
C      1  0.5151810000000  0.5064270000000  0.4930250000000 1.0
C      1  0.5043750000000  0.5024620000000  0.4838180000000 1.0
C      1  0.4315760000000  0.5158330000000  0.5032920000000 1.0
C      1  0.4613660000000  0.5122000000000  0.5542790000000 1.0
C      1  0.5186560000000  0.5153540000000  0.5655080000000 1.0
C      1  0.5616750000000  0.5112430000000  0.5253710000000 1.0
C      1  0.5605290000000  0.5154110000000  0.4673080000000 1.0
C      1  0.5120880000000  0.5136430000000  0.4341870000000 1.0
C      1  0.4557990000000  0.5134480000000  0.4508120000000 1.0
C      1  0.5026150000000  0.4629850000000  0.5069890000000 1.0
C      1  0.5050550000000  0.4763070000000  0.5094990000000 1.0
END
