TITL C-25991-4945-1 -88.1352063605304 1000000 -3668.72997745985 0 0 520 (C1) n - 1
REM
REM in /rds/project/t2_vol4/rds-t2-cs072/BORA/CARBON/from-Arr/AIRSS/Generating-Clusters/GAP-ML-2020/Higher-Symm/Selected-Sizes/Larger-Clusters/Only-C240
REM
REM
REM
REM
REM
REM ./C.cell (db1db5b03a21c153a00b653f6831bbfd)
REM AIRSS Version 0.9.1 bugfix July 2018 build 013d7b7c2542+ Fri, 06 Jul 2018 19:26:36 +0100
REM compiler GCC version 9.3.0
REM options -cpp -mtune=generic -march=x86-64 -g -O0
REM seed -324475654 1391620856 -1282176457 794787956 1755408213 -1752371677 -281791474 -343463543 1561632982 -952679391 -924409541 612811043 374506446 1392149592 -572137158 2118685509 136949135 -1289024197 1107846084 1149299313 -862598907 2045885565 1508069249 1590741882 -755982455 -587448031 1002927422 -807463880 -423493286 -547157190 -1087417598 1374849292 2019015304
REM
CELL 1.54180  100.00000  100.00000  100.00000   90.00000   90.00000   90.00000
LATT -1
SFAC C  
C      1  0.5516390000000  0.5230150000000  0.4932290000000 1.0
C      1  0.4482180000000  0.5227760000000  0.5067720000000 1.0
C      1  0.5084780000000  0.5205750000000  0.5473010000000 1.0
C      1  0.4919330000000  0.5206350000000  0.4525360000000 1.0
C      1  0.4786220000000  0.4983800000000  0.5370150000000 1.0
C      1  0.5212550000000  0.4985690000000  0.4627630000000 1.0
C      1  0.5585740000000  0.5596910000000  0.4866090000000 1.0
C      1  0.4414180000000  0.5592790000000  0.5136620000000 1.0
C      1  0.5019070000000  0.4824130000000  0.5408260000000 1.0
C      1  0.4973290000000  0.4823950000000  0.4600800000000 1.0
C      1  0.5485270000000  0.4772120000000  0.5021840000000 1.0
C      1  0.4509700000000  0.4770680000000  0.4974850000000 1.0
C      1  0.5228060000000  0.4909450000000  0.5069750000000 1.0
C      1  0.4771000000000  0.4909930000000  0.4937230000000 1.0
C      1  0.4810800000000  0.4670710000000  0.5767760000000 1.0
C      1  0.5215410000000  0.4675440000000  0.4227370000000 1.0
C      1  0.4978880000000  0.5672440000000  0.5068230000000 1.0
C      1  0.5019900000000  0.5672720000000  0.4932440000000 1.0
C      1  0.4693640000000  0.5028710000000  0.4843040000000 1.0
C      1  0.5305540000000  0.5029090000000  0.5159160000000 1.0
C      1  0.5282830000000  0.4804370000000  0.4196710000000 1.0
C      1  0.4743340000000  0.4800310000000  0.5786930000000 1.0
C      1  0.4565870000000  0.4205930000000  0.4939230000000 1.0
C      1  0.5432880000000  0.4202190000000  0.5053500000000 1.0
C      1  0.4870190000000  0.4813490000000  0.4869530000000 1.0
C      1  0.5130850000000  0.4810310000000  0.5138850000000 1.0
C      1  0.5425000000000  0.5452190000000  0.4442960000000 1.0
C      1  0.4576530000000  0.5445520000000  0.5560270000000 1.0
C      1  0.5065910000000  0.4506200000000  0.5629500000000 1.0
C      1  0.4997030000000  0.4498270000000  0.4338350000000 1.0
C      1  0.4917120000000  0.4672260000000  0.4931900000000 1.0
C      1  0.5080810000000  0.4667020000000  0.5080770000000 1.0
C      1  0.4967570000000  0.4884340000000  0.4215520000000 1.0
C      1  0.5047830000000  0.4883050000000  0.5785280000000 1.0
C      1  0.4717660000000  0.5382170000000  0.5379780000000 1.0
C      1  0.5282150000000  0.5385370000000  0.4620560000000 1.0
C      1  0.5476560000000  0.5111660000000  0.4301950000000 1.0
C      1  0.4548780000000  0.5087360000000  0.5683800000000 1.0
C      1  0.5537670000000  0.4902150000000  0.4989910000000 1.0
C      1  0.4458090000000  0.4900510000000  0.5006550000000 1.0
C      1  0.4850110000000  0.5757640000000  0.4759970000000 1.0
C      1  0.5147800000000  0.5759230000000  0.5240780000000 1.0
C      1  0.5293850000000  0.4655290000000  0.5684620000000 1.0
C      1  0.4740310000000  0.4647190000000  0.4318500000000 1.0
C      1  0.4449890000000  0.5001750000000  0.4889530000000 1.0
C      1  0.5548170000000  0.5003020000000  0.5106500000000 1.0
C      1  0.4824400000000  0.5527570000000  0.4889090000000 1.0
C      1  0.5175280000000  0.5528680000000  0.5112040000000 1.0
C      1  0.4791240000000  0.5727960000000  0.4612500000000 1.0
C      1  0.5207700000000  0.5729210000000  0.5387770000000 1.0
C      1  0.5659060000000  0.4753330000000  0.4698620000000 1.0
C      1  0.4325170000000  0.4754930000000  0.5290300000000 1.0
C      1  0.5254480000000  0.5255860000000  0.4697020000000 1.0
C      1  0.4746160000000  0.5253830000000  0.5302710000000 1.0
C      1  0.4706990000000  0.5016210000000  0.4271330000000 1.0
C      1  0.5303510000000  0.5023520000000  0.5727590000000 1.0
C      1  0.4802990000000  0.5077810000000  0.4763080000000 1.0
C      1  0.5196780000000  0.5077980000000  0.5238690000000 1.0
C      1  0.4827050000000  0.5141340000000  0.5563960000000 1.0
C      1  0.5181050000000  0.5140670000000  0.4434420000000 1.0
C      1  0.4694130000000  0.5745820000000  0.5183020000000 1.0
C      1  0.5305680000000  0.5749260000000  0.4820100000000 1.0
C      1  0.5059310000000  0.4546160000000  0.5480160000000 1.0
C      1  0.4925210000000  0.4538030000000  0.4563610000000 1.0
C      1  0.5442520000000  0.4858730000000  0.4571320000000 1.0
C      1  0.4546830000000  0.4856970000000  0.5420380000000 1.0
C      1  0.5458030000000  0.5255680000000  0.4561780000000 1.0
C      1  0.4543830000000  0.5250420000000  0.5439070000000 1.0
C      1  0.5217940000000  0.4417030000000  0.4466970000000 1.0
C      1  0.4745760000000  0.4413940000000  0.5519550000000 1.0
C      1  0.5367330000000  0.5193920000000  0.4942920000000 1.0
C      1  0.4631630000000  0.5192420000000  0.5058030000000 1.0
C      1  0.5120570000000  0.5131770000000  0.4113110000000 1.0
C      1  0.4888800000000  0.5131070000000  0.5893750000000 1.0
C      1  0.4733410000000  0.4234930000000  0.5198630000000 1.0
C      1  0.5255540000000  0.4236590000000  0.4796710000000 1.0
C      1  0.5276450000000  0.4274880000000  0.5225440000000 1.0
C      1  0.4726450000000  0.4286530000000  0.4777850000000 1.0
C      1  0.5188810000000  0.5294890000000  0.5430140000000 1.0
C      1  0.4814440000000  0.5294210000000  0.4569280000000 1.0
C      1  0.5461000000000  0.5404530000000  0.5107540000000 1.0
C      1  0.4540160000000  0.5402050000000  0.4892850000000 1.0
C      1  0.5304820000000  0.5541830000000  0.4453470000000 1.0
C      1  0.4694660000000  0.5537600000000  0.5547820000000 1.0
C      1  0.4656910000000  0.5169960000000  0.4911470000000 1.0
C      1  0.5342750000000  0.5172360000000  0.5089780000000 1.0
C      1  0.4154410000000  0.4654260000000  0.5154810000000 1.0
C      1  0.5833390000000  0.4653060000000  0.4826310000000 1.0
C      1  0.4202400000000  0.5034050000000  0.4823410000000 1.0
C      1  0.5797760000000  0.5033080000000  0.5171290000000 1.0
C      1  0.4285550000000  0.4803400000000  0.4799850000000 1.0
C      1  0.5711110000000  0.4803630000000  0.5193360000000 1.0
C      1  0.4550510000000  0.4756540000000  0.5198120000000 1.0
C      1  0.5439130000000  0.4759440000000  0.4799250000000 1.0
C      1  0.4171140000000  0.4967210000000  0.4950700000000 1.0
C      1  0.5826930000000  0.4966000000000  0.5043320000000 1.0
C      1  0.4603490000000  0.5222560000000  0.5688990000000 1.0
C      1  0.5408040000000  0.5238490000000  0.4307270000000 1.0
C      1  0.5274480000000  0.4897600000000  0.4720300000000 1.0
C      1  0.4717440000000  0.4896200000000  0.5280530000000 1.0
C      1  0.5696550000000  0.5180050000000  0.5491790000000 1.0
C      1  0.4310790000000  0.5174920000000  0.4505460000000 1.0
C      1  0.4459730000000  0.4600410000000  0.5420500000000 1.0
C      1  0.5511920000000  0.4605710000000  0.4571160000000 1.0
C      1  0.4518750000000  0.5499890000000  0.5440140000000 1.0
C      1  0.5480310000000  0.5506630000000  0.4563930000000 1.0
C      1  0.4422780000000  0.5240520000000  0.5550040000000 1.0
C      1  0.5582210000000  0.5253650000000  0.4456030000000 1.0
C      1  0.4983810000000  0.5607970000000  0.4489570000000 1.0
C      1  0.5017020000000  0.5607590000000  0.5510270000000 1.0
C      1  0.4260090000000  0.5020550000000  0.5299040000000 1.0
C      1  0.5735810000000  0.5016970000000  0.4700380000000 1.0
C      1  0.5729090000000  0.4481260000000  0.4976820000000 1.0
C      1  0.4260410000000  0.4479000000000  0.5006100000000 1.0
C      1  0.4841800000000  0.4603050000000  0.5335780000000 1.0
C      1  0.5150130000000  0.4602550000000  0.4690420000000 1.0
C      1  0.4870150000000  0.4329030000000  0.4776850000000 1.0
C      1  0.5129820000000  0.4309550000000  0.5227350000000 1.0
C      1  0.4873480000000  0.5072050000000  0.4522970000000 1.0
C      1  0.5131430000000  0.5071660000000  0.5477540000000 1.0
C      1  0.4901880000000  0.5021160000000  0.4395720000000 1.0
C      1  0.5104050000000  0.5020670000000  0.5605100000000 1.0
C      1  0.5532920000000  0.5638920000000  0.5080080000000 1.0
C      1  0.4466420000000  0.5636070000000  0.4920500000000 1.0
C      1  0.5152430000000  0.4821150000000  0.4823030000000 1.0
C      1  0.4842640000000  0.4820480000000  0.5184590000000 1.0
C      1  0.5270790000000  0.5265660000000  0.4375780000000 1.0
C      1  0.4736770000000  0.5262140000000  0.5622920000000 1.0
C      1  0.4939350000000  0.5217820000000  0.5471660000000 1.0
C      1  0.5065390000000  0.5218350000000  0.4526620000000 1.0
C      1  0.4387860000000  0.4296310000000  0.5060290000000 1.0
C      1  0.5602020000000  0.4298290000000  0.4925780000000 1.0
C      1  0.4930300000000  0.5616080000000  0.4822000000000 1.0
C      1  0.5068420000000  0.5616870000000  0.5178750000000 1.0
C      1  0.5301050000000  0.4202930000000  0.5102800000000 1.0
C      1  0.4700570000000  0.4213300000000  0.4897780000000 1.0
C      1  0.5146600000000  0.4242250000000  0.5497760000000 1.0
C      1  0.4846790000000  0.4213960000000  0.4508640000000 1.0
C      1  0.4344260000000  0.4424820000000  0.5109880000000 1.0
C      1  0.5640420000000  0.4428060000000  0.4876250000000 1.0
C      1  0.4973060000000  0.4489780000000  0.5369390000000 1.0
C      1  0.5021990000000  0.4498500000000  0.4667460000000 1.0
C      1  0.4746120000000  0.4837200000000  0.5066070000000 1.0
C      1  0.5248620000000  0.4841650000000  0.4937840000000 1.0
C      1  0.5154350000000  0.4551250000000  0.5156160000000 1.0
C      1  0.4838330000000  0.4557750000000  0.4864730000000 1.0
C      1  0.4616340000000  0.5313660000000  0.4349440000000 1.0
C      1  0.5389030000000  0.5318100000000  0.5648810000000 1.0
C      1  0.4815200000000  0.5390410000000  0.5082690000000 1.0
C      1  0.5184530000000  0.5392050000000  0.4917620000000 1.0
C      1  0.4895200000000  0.5203460000000  0.5332680000000 1.0
C      1  0.5106240000000  0.5204940000000  0.4666700000000 1.0
C      1  0.5320930000000  0.5256780000000  0.5391470000000 1.0
C      1  0.4682390000000  0.5254690000000  0.4608490000000 1.0
C      1  0.4853880000000  0.4519730000000  0.5098010000000 1.0
C      1  0.5102790000000  0.4467730000000  0.4945790000000 1.0
C      1  0.4228390000000  0.5281570000000  0.4728090000000 1.0
C      1  0.5773560000000  0.5283200000000  0.5268040000000 1.0
C      1  0.5172840000000  0.4622930000000  0.5437540000000 1.0
C      1  0.4820120000000  0.4625260000000  0.4585360000000 1.0
C      1  0.4335670000000  0.5489680000000  0.4659210000000 1.0
C      1  0.5664830000000  0.5492150000000  0.5335680000000 1.0
C      1  0.5353550000000  0.4789070000000  0.4668240000000 1.0
C      1  0.4634040000000  0.4785960000000  0.5328590000000 1.0
C      1  0.4414020000000  0.5232480000000  0.4422680000000 1.0
C      1  0.5592290000000  0.5237810000000  0.5574010000000 1.0
C      1  0.4387790000000  0.5010440000000  0.5515760000000 1.0
C      1  0.5611610000000  0.5018730000000  0.4485060000000 1.0
C      1  0.5704580000000  0.5221740000000  0.4552370000000 1.0
C      1  0.4297810000000  0.5216200000000  0.5455980000000 1.0
C      1  0.4648340000000  0.5712050000000  0.4625950000000 1.0
C      1  0.5350740000000  0.5714830000000  0.5373840000000 1.0
C      1  0.4233420000000  0.5447380000000  0.4894050000000 1.0
C      1  0.5770600000000  0.5448050000000  0.5101100000000 1.0
C      1  0.5227960000000  0.5510560000000  0.4573750000000 1.0
C      1  0.4772470000000  0.5507000000000  0.5427600000000 1.0
C      1  0.5384530000000  0.4312160000000  0.4830920000000 1.0
C      1  0.4601150000000  0.4308470000000  0.5163990000000 1.0
C      1  0.5128680000000  0.5781910000000  0.4646490000000 1.0
C      1  0.4880550000000  0.5782480000000  0.5350180000000 1.0
C      1  0.4592580000000  0.4990340000000  0.5202400000000 1.0
C      1  0.5402800000000  0.4992950000000  0.4795990000000 1.0
C      1  0.5267880000000  0.4623320000000  0.5210250000000 1.0
C      1  0.4728580000000  0.4628730000000  0.4803420000000 1.0
C      1  0.4864530000000  0.5876270000000  0.4980700000000 1.0
C      1  0.5132720000000  0.5877430000000  0.5019190000000 1.0
C      1  0.5454280000000  0.5047980000000  0.5366430000000 1.0
C      1  0.4550400000000  0.5043700000000  0.4630890000000 1.0
C      1  0.4567350000000  0.4939300000000  0.5665040000000 1.0
C      1  0.5468660000000  0.4962980000000  0.4300420000000 1.0
C      1  0.5176820000000  0.4324630000000  0.4568970000000 1.0
C      1  0.4798450000000  0.4313250000000  0.5435200000000 1.0
C      1  0.4187260000000  0.4715470000000  0.5261910000000 1.0
C      1  0.5798650000000  0.4711210000000  0.4718480000000 1.0
C      1  0.4975150000000  0.5524880000000  0.5274670000000 1.0
C      1  0.5024700000000  0.5526690000000  0.4725590000000 1.0
C      1  0.5200600000000  0.4442180000000  0.5622890000000 1.0
C      1  0.4880100000000  0.4466580000000  0.4434870000000 1.0
C      1  0.4792400000000  0.4626750000000  0.5637240000000 1.0
C      1  0.5196870000000  0.4629880000000  0.4358200000000 1.0
C      1  0.4817940000000  0.5377260000000  0.5679940000000 1.0
C      1  0.5186540000000  0.5379020000000  0.4319290000000 1.0
C      1  0.5739970000000  0.5283760000000  0.5406630000000 1.0
C      1  0.4265350000000  0.5278700000000  0.4590230000000 1.0
C      1  0.4838640000000  0.5431390000000  0.4552000000000 1.0
C      1  0.5163570000000  0.5431870000000  0.5447890000000 1.0
C      1  0.4203240000000  0.5072980000000  0.5049740000000 1.0
C      1  0.5793260000000  0.5073400000000  0.4948190000000 1.0
C      1  0.5029440000000  0.4197570000000  0.4831740000000 1.0
C      1  0.4967100000000  0.4181320000000  0.5170910000000 1.0
C      1  0.4488700000000  0.4341670000000  0.4741770000000 1.0
C      1  0.5513810000000  0.4337840000000  0.5247670000000 1.0
C      1  0.5051230000000  0.4819180000000  0.4472840000000 1.0
C      1  0.4935220000000  0.4829400000000  0.5531820000000 1.0
C      1  0.4778880000000  0.4761740000000  0.5549710000000 1.0
C      1  0.5174330000000  0.4734450000000  0.4469950000000 1.0
C      1  0.5405080000000  0.5665490000000  0.4758320000000 1.0
C      1  0.4594990000000  0.5661570000000  0.5245030000000 1.0
C      1  0.5132340000000  0.5206320000000  0.4879420000000 1.0
C      1  0.4867440000000  0.5204580000000  0.5120550000000 1.0
C      1  0.4725340000000  0.5070000000000  0.5461830000000 1.0
C      1  0.5279130000000  0.5070460000000  0.4536300000000 1.0
C      1  0.5185210000000  0.4184610000000  0.5022360000000 1.0
C      1  0.4817280000000  0.4201480000000  0.4978270000000 1.0
C      1  0.5348170000000  0.5333180000000  0.4495260000000 1.0
C      1  0.4654280000000  0.5329020000000  0.5505800000000 1.0
C      1  0.4961610000000  0.5490770000000  0.4591130000000 1.0
C      1  0.5039770000000  0.5489750000000  0.5408980000000 1.0
C      1  0.5437980000000  0.5618000000000  0.5428290000000 1.0
C      1  0.4562490000000  0.5614460000000  0.4570890000000 1.0
C      1  0.5161350000000  0.4183450000000  0.4880260000000 1.0
C      1  0.4833720000000  0.4183820000000  0.5118610000000 1.0
C      1  0.5384950000000  0.4873080000000  0.4247190000000 1.0
C      1  0.4677420000000  0.4841060000000  0.5666840000000 1.0
C      1  0.4894530000000  0.5049190000000  0.5298570000000 1.0
C      1  0.5105700000000  0.5050540000000  0.4701530000000 1.0
C      1  0.4318470000000  0.5457520000000  0.4995580000000 1.0
C      1  0.5681150000000  0.5459530000000  0.5003650000000 1.0
C      1  0.5013180000000  0.4943470000000  0.5314110000000 1.0
C      1  0.4985800000000  0.4944360000000  0.4689970000000 1.0
C      1  0.4466860000000  0.5565900000000  0.4682590000000 1.0
C      1  0.5533310000000  0.5570110000000  0.5316120000000 1.0
C      1  0.5526860000000  0.4911940000000  0.5559670000000 1.0
C      1  0.4488970000000  0.4898690000000  0.4438660000000 1.0
C      1  0.5171200000000  0.4823150000000  0.5780650000000 1.0
C      1  0.4847250000000  0.4818940000000  0.4217950000000 1.0
C      1  0.5178870000000  0.5807670000000  0.4772850000000 1.0
C      1  0.4821930000000  0.5806150000000  0.5227810000000 1.0
C      1  0.4837980000000  0.5237670000000  0.4256820000000 1.0
C      1  0.5167190000000  0.5240520000000  0.5741100000000 1.0
C      1  0.5582270000000  0.5142200000000  0.5041070000000 1.0
C      1  0.4416690000000  0.5139940000000  0.4957720000000 1.0
C      1  0.5174720000000  0.4680850000000  0.5757680000000 1.0
C      1  0.4852340000000  0.4676720000000  0.4237060000000 1.0
C      1  0.4580090000000  0.5535180000000  0.4962480000000 1.0
C      1  0.5419920000000  0.5537740000000  0.5039030000000 1.0
C      1  0.4428870000000  0.5111120000000  0.5610060000000 1.0
C      1  0.5583730000000  0.5127670000000  0.4391920000000 1.0
C      1  0.4488910000000  0.5327220000000  0.5317970000000 1.0
C      1  0.5510260000000  0.5331660000000  0.4684290000000 1.0
C      1  0.5678620000000  0.5407220000000  0.5447580000000 1.0
C      1  0.4325560000000  0.5402460000000  0.4548530000000 1.0
C      1  0.4446210000000  0.4897980000000  0.5597680000000 1.0
C      1  0.5562230000000  0.4910290000000  0.4395610000000 1.0
C      1  0.5259340000000  0.5271100000000  0.4860360000000 1.0
C      1  0.4740540000000  0.5269410000000  0.5139930000000 1.0
C      1  0.4579380000000  0.4292840000000  0.5315470000000 1.0
C      1  0.5400890000000  0.4298670000000  0.4676190000000 1.0
C      1  0.4980710000000  0.4938090000000  0.5635500000000 1.0
C      1  0.5023120000000  0.4937220000000  0.4365050000000 1.0
C      1  0.5289860000000  0.4881630000000  0.5732900000000 1.0
C      1  0.4726930000000  0.4873740000000  0.4268920000000 1.0
C      1  0.5038930000000  0.5281420000000  0.4787590000000 1.0
C      1  0.4961510000000  0.5279800000000  0.5211610000000 1.0
C      1  0.5369720000000  0.4760290000000  0.4926200000000 1.0
C      1  0.4624500000000  0.4755570000000  0.5072980000000 1.0
C      1  0.4522860000000  0.4718570000000  0.4837890000000 1.0
C      1  0.5471170000000  0.4718590000000  0.5159080000000 1.0
C      1  0.5003420000000  0.4893120000000  0.5169950000000 1.0
C      1  0.4996630000000  0.4893860000000  0.4834340000000 1.0
C      1  0.4692310000000  0.4405590000000  0.4576190000000 1.0
C      1  0.5328580000000  0.4400320000000  0.5426930000000 1.0
C      1  0.4273500000000  0.5164660000000  0.4954500000000 1.0
C      1  0.5725610000000  0.5166060000000  0.5044140000000 1.0
C      1  0.5428980000000  0.4815690000000  0.5538850000000 1.0
C      1  0.4586400000000  0.4801420000000  0.4460890000000 1.0
C      1  0.5526480000000  0.4798850000000  0.4473350000000 1.0
C      1  0.4457540000000  0.4789810000000  0.5510920000000 1.0
C      1  0.5056580000000  0.4455090000000  0.5229960000000 1.0
C      1  0.4919450000000  0.4467710000000  0.4781090000000 1.0
C      1  0.5728060000000  0.5308000000000  0.4660740000000 1.0
C      1  0.4273610000000  0.5302180000000  0.5346250000000 1.0
C      1  0.4579090000000  0.5065670000000  0.4306380000000 1.0
C      1  0.5430660000000  0.5073740000000  0.5692780000000 1.0
C      1  0.4935110000000  0.5862000000000  0.4859010000000 1.0
C      1  0.5062250000000  0.5863520000000  0.5140670000000 1.0
C      1  0.4715020000000  0.4684250000000  0.5419170000000 1.0
C      1  0.5258220000000  0.4683420000000  0.4590910000000 1.0
C      1  0.5361830000000  0.5159950000000  0.4623560000000 1.0
C      1  0.4639640000000  0.5156470000000  0.5375280000000 1.0
C      1  0.4761310000000  0.5532450000000  0.4478580000000 1.0
C      1  0.5240280000000  0.5533580000000  0.5521400000000 1.0
C      1  0.5281990000000  0.5798540000000  0.5180250000000 1.0
C      1  0.4715220000000  0.5794990000000  0.4821090000000 1.0
C      1  0.4627310000000  0.4340860000000  0.4688790000000 1.0
C      1  0.5378580000000  0.4333910000000  0.5308550000000 1.0
C      1  0.4995050000000  0.5028040000000  0.4921410000000 1.0
C      1  0.5005490000000  0.5027050000000  0.5081020000000 1.0
C      1  0.5396630000000  0.5754940000000  0.5245950000000 1.0
C      1  0.4601610000000  0.5751170000000  0.4754060000000 1.0
C      1  0.4442450000000  0.4976560000000  0.4549200000000 1.0
C      1  0.5567160000000  0.4984030000000  0.5443980000000 1.0
C      1  0.4188330000000  0.4599200000000  0.5034910000000 1.0
C      1  0.5802490000000  0.4600520000000  0.4947580000000 1.0
C      1  0.5525990000000  0.4494240000000  0.4654770000000 1.0
C      1  0.4445860000000  0.4489270000000  0.5335230000000 1.0
C      1  0.4827260000000  0.5090790000000  0.4284810000000 1.0
C      1  0.5179840000000  0.5093500000000  0.5714530000000 1.0
C      1  0.5158200000000  0.5650470000000  0.5494750000000 1.0
C      1  0.4842110000000  0.5649950000000  0.4505560000000 1.0
C      1  0.4204870000000  0.4825720000000  0.4921580000000 1.0
C      1  0.5790650000000  0.4824400000000  0.5069620000000 1.0
C      1  0.4983340000000  0.4246670000000  0.4699180000000 1.0
C      1  0.5025200000000  0.4220810000000  0.5291550000000 1.0
C      1  0.5389560000000  0.5522960000000  0.4792430000000 1.0
C      1  0.4609060000000  0.5519200000000  0.5210120000000 1.0
C      1  0.5231300000000  0.4344240000000  0.5521160000000 1.0
C      1  0.4803330000000  0.4348530000000  0.4502590000000 1.0
C      1  0.4844600000000  0.5026500000000  0.5816480000000 1.0
C      1  0.5168890000000  0.5027500000000  0.4187220000000 1.0
C      1  0.5214980000000  0.4478320000000  0.5034280000000 1.0
C      1  0.4770700000000  0.4495470000000  0.4986150000000 1.0
C      1  0.5586360000000  0.5377540000000  0.5552470000000 1.0
C      1  0.4418730000000  0.5372220000000  0.4444310000000 1.0
C      1  0.5108560000000  0.5136880000000  0.5145920000000 1.0
C      1  0.4890880000000  0.5136580000000  0.4856300000000 1.0
C      1  0.5631880000000  0.5414740000000  0.4662800000000 1.0
C      1  0.4367940000000  0.5410020000000  0.5343450000000 1.0
C      1  0.4714920000000  0.4253930000000  0.5338100000000 1.0
C      1  0.5266660000000  0.4257210000000  0.4656570000000 1.0
C      1  0.4442590000000  0.5641760000000  0.5265730000000 1.0
C      1  0.5557530000000  0.5647260000000  0.4738170000000 1.0
C      1  0.5124320000000  0.5065620000000  0.4864510000000 1.0
C      1  0.4875560000000  0.5063960000000  0.5137280000000 1.0
C      1  0.4467850000000  0.4249900000000  0.4846970000000 1.0
C      1  0.5534090000000  0.4246050000000  0.5141920000000 1.0
C      1  0.5453320000000  0.5188590000000  0.5600390000000 1.0
C      1  0.4553640000000  0.5182790000000  0.4397300000000 1.0
C      1  0.4769950000000  0.4994580000000  0.5059370000000 1.0
C      1  0.5229080000000  0.4994640000000  0.4943430000000 1.0
C      1  0.4392660000000  0.4710250000000  0.5041480000000 1.0
C      1  0.5600230000000  0.4710110000000  0.4950950000000 1.0
C      1  0.4668960000000  0.4770810000000  0.4349000000000 1.0
C      1  0.5354830000000  0.4781100000000  0.5654210000000 1.0
C      1  0.5686490000000  0.4946900000000  0.5356410000000 1.0
C      1  0.4316250000000  0.4943440000000  0.4636630000000 1.0
C      1  0.4733210000000  0.5313290000000  0.4288970000000 1.0
C      1  0.5271690000000  0.5316460000000  0.5708380000000 1.0
C      1  0.4857970000000  0.5589950000000  0.5350810000000 1.0
C      1  0.5141900000000  0.5593570000000  0.4650580000000 1.0
C      1  0.5384750000000  0.5537310000000  0.5532670000000 1.0
C      1  0.4617110000000  0.5534130000000  0.4466530000000 1.0
C      1  0.5456800000000  0.5428910000000  0.5590310000000 1.0
C      1  0.4547870000000  0.5424310000000  0.4407980000000 1.0
C      1  0.4854530000000  0.5394380000000  0.4936020000000 1.0
C      1  0.5145560000000  0.5395270000000  0.5064390000000 1.0
C      1  0.4452250000000  0.5376200000000  0.5021360000000 1.0
C      1  0.5547160000000  0.5378640000000  0.4978990000000 1.0
C      1  0.5081040000000  0.5693300000000  0.4560700000000 1.0
C      1  0.4918690000000  0.5691570000000  0.5437990000000 1.0
C      1  0.4966110000000  0.5302070000000  0.4222280000000 1.0
C      1  0.5038690000000  0.5303600000000  0.5777330000000 1.0
C      1  0.5478020000000  0.5496430000000  0.4904950000000 1.0
C      1  0.4521500000000  0.5493280000000  0.5096550000000 1.0
C      1  0.5587990000000  0.4607300000000  0.5409760000000 1.0
C      1  0.4419130000000  0.4604930000000  0.4578310000000 1.0
C      1  0.5389440000000  0.4816030000000  0.5264960000000 1.0
C      1  0.4609430000000  0.4815190000000  0.4738330000000 1.0
C      1  0.4304070000000  0.4413340000000  0.4882420000000 1.0
C      1  0.5692140000000  0.4413520000000  0.5101280000000 1.0
C      1  0.5262120000000  0.5828590000000  0.5044050000000 1.0
C      1  0.4735390000000  0.5825640000000  0.4957210000000 1.0
C      1  0.5530110000000  0.4984110000000  0.5673910000000 1.0
C      1  0.4484900000000  0.4970880000000  0.4324560000000 1.0
C      1  0.4213390000000  0.5174460000000  0.4823330000000 1.0
C      1  0.5787230000000  0.5174230000000  0.5174230000000 1.0
C      1  0.5464290000000  0.5087660000000  0.4702580000000 1.0
C      1  0.4533320000000  0.5085090000000  0.5296500000000 1.0
C      1  0.4451270000000  0.5209880000000  0.5220240000000 1.0
C      1  0.5547270000000  0.5213000000000  0.4780350000000 1.0
C      1  0.4253640000000  0.4722410000000  0.5005930000000 1.0
C      1  0.5739980000000  0.4723660000000  0.4982710000000 1.0
C      1  0.4315240000000  0.5041750000000  0.4534530000000 1.0
C      1  0.5695490000000  0.5048350000000  0.5456570000000 1.0
C      1  0.4282190000000  0.5078720000000  0.5433190000000 1.0
C      1  0.5715920000000  0.5082560000000  0.4570620000000 1.0
C      1  0.4222560000000  0.5101300000000  0.5188020000000 1.0
C      1  0.5771690000000  0.5099970000000  0.4810670000000 1.0
C      1  0.4973900000000  0.4602940000000  0.4238860000000 1.0
C      1  0.5056340000000  0.4605090000000  0.5739550000000 1.0
C      1  0.5751260000000  0.5421520000000  0.5231380000000 1.0
C      1  0.4250130000000  0.5420340000000  0.4763480000000 1.0
C      1  0.4926540000000  0.4648190000000  0.5090690000000 1.0
C      1  0.5067090000000  0.4624280000000  0.4926640000000 1.0
C      1  0.4749210000000  0.4540240000000  0.4402270000000 1.0
C      1  0.5303830000000  0.4537300000000  0.5613200000000 1.0
C      1  0.4363680000000  0.4572120000000  0.4705870000000 1.0
C      1  0.5636590000000  0.4570220000000  0.5280750000000 1.0
C      1  0.4381040000000  0.4712570000000  0.5423940000000 1.0
C      1  0.5591820000000  0.4717090000000  0.4566230000000 1.0
C      1  0.5136800000000  0.4498590000000  0.4383170000000 1.0
C      1  0.4821530000000  0.4505040000000  0.5588370000000 1.0
C      1  0.4915030000000  0.5416080000000  0.5189480000000 1.0
C      1  0.5085160000000  0.5417690000000  0.4810190000000 1.0
C      1  0.5514000000000  0.5679570000000  0.5211980000000 1.0
C      1  0.4484690000000  0.5675040000000  0.4787760000000 1.0
C      1  0.4864410000000  0.4681040000000  0.5218060000000 1.0
C      1  0.5138020000000  0.4675580000000  0.4808590000000 1.0
C      1  0.5473220000000  0.4240050000000  0.4919270000000 1.0
C      1  0.4516800000000  0.4237750000000  0.5071400000000 1.0
C      1  0.4949190000000  0.4425530000000  0.5128070000000 1.0
C      1  0.5008890000000  0.4362300000000  0.5008980000000 1.0
C      1  0.5295500000000  0.5721440000000  0.4960300000000 1.0
C      1  0.4703360000000  0.5718980000000  0.5042380000000 1.0
C      1  0.5405320000000  0.5438830000000  0.4679800000000 1.0
C      1  0.4593310000000  0.5434200000000  0.5322180000000 1.0
C      1  0.5082020000000  0.4675580000000  0.4174750000000 1.0
C      1  0.4944670000000  0.4669100000000  0.5810270000000 1.0
C      1  0.5384760000000  0.5284510000000  0.5156420000000 1.0
C      1  0.4615950000000  0.5281620000000  0.4844210000000 1.0
C      1  0.5135940000000  0.5035900000000  0.4335590000000 1.0
C      1  0.4876290000000  0.5041770000000  0.5667670000000 1.0
C      1  0.5063220000000  0.4355170000000  0.4641350000000 1.0
C      1  0.4933680000000  0.4339520000000  0.5414450000000 1.0
C      1  0.5048760000000  0.5532890000000  0.4366450000000 1.0
C      1  0.4952730000000  0.5533620000000  0.5633390000000 1.0
C      1  0.4520730000000  0.5432960000000  0.4745800000000 1.0
C      1  0.5483520000000  0.5435050000000  0.5254480000000 1.0
C      1  0.4573450000000  0.4974190000000  0.4770370000000 1.0
C      1  0.5425850000000  0.4974800000000  0.5230100000000 1.0
C      1  0.4960710000000  0.5402960000000  0.5707010000000 1.0
C      1  0.5042830000000  0.5402090000000  0.4293040000000 1.0
C      1  0.5143620000000  0.4747540000000  0.5379120000000 1.0
C      1  0.4848840000000  0.4753850000000  0.4631430000000 1.0
C      1  0.4529930000000  0.4392110000000  0.5394260000000 1.0
C      1  0.5438100000000  0.4401270000000  0.4595280000000 1.0
C      1  0.4355620000000  0.4290370000000  0.4924750000000 1.0
C      1  0.5641390000000  0.4290140000000  0.5059690000000 1.0
C      1  0.5182050000000  0.4889690000000  0.4147220000000 1.0
C      1  0.4831650000000  0.4885070000000  0.5852140000000 1.0
C      1  0.4442930000000  0.4515160000000  0.5188200000000 1.0
C      1  0.5537170000000  0.4517730000000  0.4803540000000 1.0
C      1  0.4562760000000  0.4627330000000  0.4563040000000 1.0
C      1  0.5444780000000  0.4628330000000  0.5424470000000 1.0
C      1  0.4807900000000  0.5509570000000  0.5622280000000 1.0
C      1  0.5193820000000  0.5511480000000  0.4376790000000 1.0
C      1  0.5348000000000  0.5055920000000  0.4907250000000 1.0
C      1  0.4650610000000  0.5055060000000  0.5094230000000 1.0
C      1  0.5333890000000  0.4543780000000  0.5464580000000 1.0
C      1  0.4683470000000  0.4547270000000  0.4537410000000 1.0
C      1  0.4716850000000  0.5587500000000  0.4971550000000 1.0
C      1  0.5282680000000  0.5589440000000  0.5030310000000 1.0
C      1  0.4506910000000  0.5324270000000  0.5642110000000 1.0
C      1  0.5499130000000  0.5340120000000  0.4361730000000 1.0
C      1  0.5672950000000  0.4959740000000  0.5206290000000 1.0
C      1  0.4325790000000  0.4959770000000  0.4786550000000 1.0
C      1  0.5626770000000  0.4909760000000  0.4721360000000 1.0
C      1  0.4365400000000  0.4910580000000  0.5273600000000 1.0
C      1  0.5641330000000  0.5601450000000  0.4993970000000 1.0
C      1  0.4358800000000  0.5599330000000  0.5008430000000 1.0
C      1  0.4612150000000  0.5144820000000  0.4553130000000 1.0
C      1  0.5392280000000  0.5147350000000  0.5446120000000 1.0
C      1  0.4475800000000  0.4907720000000  0.5158840000000 1.0
C      1  0.5518000000000  0.4908230000000  0.4837200000000 1.0
C      1  0.4571440000000  0.4466500000000  0.5114040000000 1.0
C      1  0.5406530000000  0.4470380000000  0.4882060000000 1.0
C      1  0.4295640000000  0.5217100000000  0.5230910000000 1.0
C      1  0.5703150000000  0.5220580000000  0.4772550000000 1.0
C      1  0.4615770000000  0.4455200000000  0.5487710000000 1.0
C      1  0.5347830000000  0.4462760000000  0.4501810000000 1.0
C      1  0.5528020000000  0.4973590000000  0.4614010000000 1.0
C      1  0.4465280000000  0.4971630000000  0.5381910000000 1.0
C      1  0.5563800000000  0.4673170000000  0.4813350000000 1.0
C      1  0.4423520000000  0.4672520000000  0.5178820000000 1.0
C      1  0.4584280000000  0.4761670000000  0.4599520000000 1.0
C      1  0.5420680000000  0.4765670000000  0.5403560000000 1.0
C      1  0.4329420000000  0.4708510000000  0.4564300000000 1.0
C      1  0.5675270000000  0.4712350000000  0.5428490000000 1.0
C      1  0.5031310000000  0.4235890000000  0.5430940000000 1.0
C      1  0.4931440000000  0.4153650000000  0.4583300000000 1.0
C      1  0.4598470000000  0.5319040000000  0.4707650000000 1.0
C      1  0.5403960000000  0.5321990000000  0.5292540000000 1.0
C      1  0.5353310000000  0.4512550000000  0.5011620000000 1.0
C      1  0.4630050000000  0.4513600000000  0.4989210000000 1.0
C      1  0.5231040000000  0.4764480000000  0.5253920000000 1.0
C      1  0.4766580000000  0.4768210000000  0.4757350000000 1.0
C      1  0.5615920000000  0.4687240000000  0.5192220000000 1.0
C      1  0.4380280000000  0.4687220000000  0.4799340000000 1.0
C      1  0.5076760000000  0.4249100000000  0.5090670000000 1.0
C      1  0.4927840000000  0.4269830000000  0.4910350000000 1.0
C      1  0.4279430000000  0.4803510000000  0.4646300000000 1.0
C      1  0.5723880000000  0.4806450000000  0.5346980000000 1.0
C      1  0.5375100000000  0.4600730000000  0.4520610000000 1.0
C      1  0.4594720000000  0.4594640000000  0.5475890000000 1.0
C      1  0.4905220000000  0.5280130000000  0.4848300000000 1.0
C      1  0.5095440000000  0.5280490000000  0.5151840000000 1.0
C      1  0.4920520000000  0.5831890000000  0.5114580000000 1.0
C      1  0.5077460000000  0.5831060000000  0.4885160000000 1.0
C      1  0.5063370000000  0.4813550000000  0.4140630000000 1.0
C      1  0.4954510000000  0.4806790000000  0.5857110000000 1.0
C      1  0.4862320000000  0.5014840000000  0.4652860000000 1.0
C      1  0.5138780000000  0.5012660000000  0.5348450000000 1.0
C      1  0.5382150000000  0.4600480000000  0.5131380000000 1.0
C      1  0.4608370000000  0.4600380000000  0.4868390000000 1.0
C      1  0.4957760000000  0.5234140000000  0.5868980000000 1.0
C      1  0.5048400000000  0.5233200000000  0.4131780000000 1.0
C      1  0.4403120000000  0.5549720000000  0.5372140000000 1.0
C      1  0.5596210000000  0.5554380000000  0.4633020000000 1.0
C      1  0.4377290000000  0.4443780000000  0.4759800000000 1.0
C      1  0.5621830000000  0.4442610000000  0.5226280000000 1.0
END
