TITL C-25991-4945-5 6.64158459358913 1000000 -1663.71148321446 0 0 240 (C5) n - 1
REM
REM in /rds/project/t2_vol4/rds-t2-cs072/BORA/CARBON/from-Arr/AIRSS/Generating-Clusters/GAP-ML-2020/Higher-Symm/Selected-Sizes/Larger-Clusters/Only-C240
REM
REM
REM
REM
REM
REM ./C.cell (db1db5b03a21c153a00b653f6831bbfd)
REM AIRSS Version 0.9.1 bugfix July 2018 build 013d7b7c2542+ Fri, 06 Jul 2018 19:26:36 +0100
REM compiler GCC version 9.3.0
REM options -cpp -mtune=generic -march=x86-64 -g -O0
REM seed 2096408352 -44293847 -672295478 768551056 -410854886 1422489387 -947801249 758726202 -1396318123 1711404066 943303121 525716832 -534282596 1074562558 -1171565529 1854871405 580790941 1322156302 -1006807385 258537469 -703840545 -1200679064 -1823672457 -1589793351 1472164074 -789160327 -1890706711 -133855714 -1343085979 1891021932 -1808986415 -178043176 -1287368904
REM
CELL 1.54180  100.00000  100.00000  100.00000   90.00000   90.00000   90.00000
LATT -1
SFAC C  
C      1  0.4860620000000  0.5525800000000  0.5384780000000 1.0
C      1  0.4590960000000  0.5525780000000  0.4986230000000 1.0
C      1  0.4886670000000  0.5525690000000  0.4606610000000 1.0
C      1  0.5339100000000  0.5525650000000  0.4770540000000 1.0
C      1  0.5323000000000  0.5525720000000  0.5251480000000 1.0
C      1  0.4722120000000  0.4492710000000  0.4484640000000 1.0
C      1  0.5404280000000  0.4492630000000  0.4576570000000 1.0
C      1  0.5527650000000  0.4492710000000  0.5253760000000 1.0
C      1  0.4921730000000  0.4492830000000  0.5580360000000 1.0
C      1  0.4423880000000  0.4492830000000  0.5105010000000 1.0
C      1  0.5410740000000  0.5049660000000  0.4323690000000 1.0
C      1  0.5770130000000  0.5049730000000  0.5181630000000 1.0
C      1  0.5065240000000  0.5049900000000  0.5788560000000 1.0
C      1  0.4270200000000  0.5049940000000  0.5305720000000 1.0
C      1  0.4483720000000  0.5049790000000  0.4400380000000 1.0
C      1  0.5650960000000  0.5244690000000  0.4907920000000 1.0
C      1  0.5288720000000  0.5244830000000  0.5590590000000 1.0
C      1  0.4527520000000  0.5244910000000  0.5457040000000 1.0
C      1  0.4419320000000  0.5244820000000  0.4691830000000 1.0
C      1  0.5113640000000  0.5244680000000  0.4352450000000 1.0
C      1  0.4687810000000  0.4700230000000  0.4661650000000 1.0
C      1  0.5225330000000  0.4700150000000  0.4598600000000 1.0
C      1  0.5451390000000  0.4700180000000  0.5090320000000 1.0
C      1  0.5053600000000  0.4700290000000  0.5457280000000 1.0
C      1  0.4581680000000  0.4700310000000  0.5192350000000 1.0
C      1  0.5394250000000  0.4330090000000  0.5133840000000 1.0
C      1  0.4994570000000  0.4330180000000  0.5416460000000 1.0
C      1  0.4602270000000  0.4330190000000  0.5123670000000 1.0
C      1  0.4759500000000  0.4330100000000  0.4660100000000 1.0
C      1  0.5248970000000  0.4330040000000  0.4666380000000 1.0
C      1  0.4795570000000  0.5780710000000  0.5137510000000 1.0
C      1  0.4806020000000  0.5780660000000  0.4847900000000 1.0
C      1  0.5084680000000  0.5780620000000  0.4768340000000 1.0
C      1  0.5246460000000  0.5780630000000  0.5008780000000 1.0
C      1  0.5067780000000  0.5780680000000  0.5236940000000 1.0
C      1  0.5652570000000  0.4712250000000  0.4719460000000 1.0
C      1  0.5468470000000  0.4712390000000  0.5534000000000 1.0
C      1  0.4636910000000  0.4712510000000  0.5610620000000 1.0
C      1  0.4307070000000  0.4712440000000  0.4843440000000 1.0
C      1  0.4934790000000  0.4712290000000  0.4292670000000 1.0
C      1  0.5007260000000  0.4463120000000  0.5476800000000 1.0
C      1  0.4548800000000  0.4463140000000  0.5154370000000 1.0
C      1  0.4713780000000  0.4463040000000  0.4618710000000 1.0
C      1  0.5274210000000  0.4462970000000  0.4610090000000 1.0
C      1  0.5455590000000  0.4463020000000  0.5140410000000 1.0
C      1  0.5210320000000  0.5349190000000  0.4845370000000 1.0
C      1  0.5212040000000  0.5349230000000  0.5152160000000 1.0
C      1  0.4920790000000  0.5349280000000  0.5248600000000 1.0
C      1  0.4739070000000  0.5349270000000  0.5001420000000 1.0
C      1  0.4918010000000  0.5349210000000  0.4752200000000 1.0
C      1  0.5138150000000  0.4607120000000  0.5148080000000 1.0
C      1  0.4901870000000  0.4607150000000  0.5177240000000 1.0
C      1  0.4801130000000  0.4607140000000  0.4961530000000 1.0
C      1  0.4975150000000  0.4607090000000  0.4799060000000 1.0
C      1  0.5183440000000  0.4607080000000  0.4914360000000 1.0
C      1  0.5231440000000  0.5138250000000  0.5664500000000 1.0
C      1  0.4439530000000  0.5138330000000  0.5425430000000 1.0
C      1  0.4422190000000  0.5138210000000  0.4598400000000 1.0
C      1  0.5203390000000  0.5138070000000  0.4326340000000 1.0
C      1  0.5703530000000  0.5138100000000  0.4985230000000 1.0
C      1  0.4364810000000  0.4772760000000  0.4731860000000 1.0
C      1  0.5058740000000  0.4772610000000  0.4313090000000 1.0
C      1  0.5671450000000  0.4772600000000  0.4843650000000 1.0
C      1  0.5356200000000  0.4772750000000  0.5590330000000 1.0
C      1  0.4548650000000  0.4772850000000  0.5521240000000 1.0
C      1  0.5218910000000  0.4945730000000  0.4698270000000 1.0
C      1  0.5354610000000  0.4945770000000  0.5114970000000 1.0
C      1  0.5000240000000  0.4945850000000  0.5372800000000 1.0
C      1  0.4645530000000  0.4945860000000  0.5115440000000 1.0
C      1  0.4780670000000  0.4945790000000  0.4698560000000 1.0
C      1  0.5748040000000  0.5162190000000  0.5120350000000 1.0
C      1  0.5116690000000  0.5162360000000  0.5748580000000 1.0
C      1  0.4324110000000  0.5162410000000  0.5342270000000 1.0
C      1  0.4465610000000  0.5162270000000  0.4462920000000 1.0
C      1  0.5345650000000  0.5162130000000  0.4325760000000 1.0
C      1  0.4723320000000  0.4992150000000  0.4812340000000 1.0
C      1  0.5092980000000  0.4992080000000  0.4678880000000 1.0
C      1  0.5334140000000  0.4992090000000  0.4989190000000 1.0
C      1  0.5113530000000  0.4992170000000  0.5314440000000 1.0
C      1  0.4736030000000  0.4992200000000  0.5205140000000 1.0
C      1  0.4879530000000  0.4730850000000  0.4974350000000 1.0
C      1  0.4987170000000  0.4730820000000  0.4877560000000 1.0
C      1  0.5112490000000  0.4730820000000  0.4950030000000 1.0
C      1  0.5082300000000  0.4730840000000  0.5091600000000 1.0
C      1  0.4938320000000  0.4730860000000  0.5106640000000 1.0
C      1  0.5164000000000  0.4701720000000  0.4359490000000 1.0
C      1  0.5659850000000  0.4701730000000  0.4958110000000 1.0
C      1  0.5243760000000  0.4701880000000  0.5614680000000 1.0
C      1  0.4490740000000  0.4701950000000  0.5421840000000 1.0
C      1  0.4441450000000  0.4701850000000  0.4646090000000 1.0
C      1  0.5395200000000  0.4866050000000  0.4578290000000 1.0
C      1  0.5523200000000  0.4866120000000  0.5245570000000 1.0
C      1  0.4928130000000  0.4866250000000  0.5573510000000 1.0
C      1  0.4432360000000  0.4866250000000  0.5108900000000 1.0
C      1  0.4721020000000  0.4866130000000  0.4493820000000 1.0
C      1  0.5243550000000  0.4564690000000  0.5041400000000 1.0
C      1  0.5035910000000  0.4564740000000  0.5244520000000 1.0
C      1  0.4778560000000  0.4564760000000  0.5109810000000 1.0
C      1  0.4827150000000  0.4564710000000  0.4823430000000 1.0
C      1  0.5114540000000  0.4564670000000  0.4781150000000 1.0
C      1  0.5380450000000  0.4274150000000  0.5012490000000 1.0
C      1  0.5105710000000  0.4274240000000  0.5365850000000 1.0
C      1  0.4684750000000  0.4274270000000  0.5213760000000 1.0
C      1  0.4699320000000  0.4274210000000  0.4766390000000 1.0
C      1  0.5129290000000  0.4274130000000  0.4642000000000 1.0
C      1  0.5243480000000  0.4992960000000  0.5647220000000 1.0
C      1  0.4459690000000  0.4993030000000  0.5431570000000 1.0
C      1  0.4422590000000  0.4992920000000  0.4619500000000 1.0
C      1  0.5183450000000  0.4992780000000  0.4333270000000 1.0
C      1  0.5690780000000  0.4992800000000  0.4968440000000 1.0
C      1  0.4931000000000  0.4965080000000  0.4372780000000 1.0
C      1  0.5575200000000  0.4965050000000  0.4740560000000 1.0
C      1  0.5424490000000  0.4965170000000  0.5466890000000 1.0
C      1  0.4687140000000  0.4965280000000  0.5548000000000 1.0
C      1  0.4382150000000  0.4965230000000  0.4871800000000 1.0
C      1  0.5358000000000  0.4835420000000  0.4441250000000 1.0
C      1  0.5642040000000  0.4835480000000  0.5167850000000 1.0
C      1  0.5038770000000  0.4835630000000  0.5662520000000 1.0
C      1  0.4381890000000  0.4835660000000  0.5241640000000 1.0
C      1  0.4579190000000  0.4835530000000  0.4486850000000 1.0
C      1  0.4385250000000  0.4922010000000  0.4740520000000 1.0
C      1  0.5056820000000  0.4921870000000  0.4335170000000 1.0
C      1  0.5649850000000  0.4921860000000  0.4848610000000 1.0
C      1  0.5344800000000  0.4922000000000  0.5571280000000 1.0
C      1  0.4563230000000  0.4922090000000  0.5504480000000 1.0
C      1  0.4962860000000  0.5721740000000  0.5311600000000 1.0
C      1  0.4692140000000  0.5721740000000  0.5060810000000 1.0
C      1  0.4847010000000  0.5721680000000  0.4725840000000 1.0
C      1  0.5213430000000  0.5721630000000  0.4769620000000 1.0
C      1  0.5285030000000  0.5721670000000  0.5131640000000 1.0
C      1  0.5050070000000  0.4572040000000  0.5392720000000 1.0
C      1  0.4641990000000  0.4572070000000  0.5169070000000 1.0
C      1  0.4728590000000  0.4571990000000  0.4711850000000 1.0
C      1  0.5190190000000  0.4571920000000  0.4652920000000 1.0
C      1  0.5388880000000  0.4571950000000  0.5073720000000 1.0
C      1  0.4635920000000  0.5601800000000  0.4869790000000 1.0
C      1  0.5011300000000  0.5601710000000  0.4613370000000 1.0
C      1  0.5371180000000  0.5601700000000  0.4891140000000 1.0
C      1  0.5218210000000  0.5601780000000  0.5319240000000 1.0
C      1  0.4763790000000  0.5601840000000  0.5306040000000 1.0
C      1  0.5532190000000  0.4634090000000  0.5462670000000 1.0
C      1  0.4724450000000  0.4634220000000  0.5649190000000 1.0
C      1  0.4297440000000  0.4634180000000  0.4938630000000 1.0
C      1  0.4841280000000  0.4634020000000  0.4312950000000 1.0
C      1  0.5604400000000  0.4633970000000  0.4636820000000 1.0
C      1  0.5717060000000  0.4937350000000  0.5104000000000 1.0
C      1  0.5122680000000  0.4937510000000  0.5714110000000 1.0
C      1  0.4358750000000  0.4937560000000  0.5337360000000 1.0
C      1  0.4481000000000  0.4937430000000  0.4494400000000 1.0
C      1  0.5320480000000  0.4937300000000  0.4350170000000 1.0
C      1  0.5229840000000  0.5032620000000  0.5296300000000 1.0
C      1  0.4789230000000  0.5032680000000  0.5310150000000 1.0
C      1  0.4639900000000  0.5032640000000  0.4895380000000 1.0
C      1  0.4988220000000  0.5032560000000  0.4625190000000 1.0
C      1  0.5352830000000  0.5032540000000  0.4872970000000 1.0
C      1  0.5358490000000  0.4273490000000  0.4888680000000 1.0
C      1  0.5216680000000  0.4273570000000  0.5306700000000 1.0
C      1  0.4775300000000  0.4273620000000  0.5301020000000 1.0
C      1  0.4644310000000  0.4273580000000  0.4879470000000 1.0
C      1  0.5004740000000  0.4273500000000  0.4624630000000 1.0
C      1  0.5362660000000  0.5601680000000  0.5134850000000 1.0
C      1  0.4983800000000  0.5601760000000  0.5386450000000 1.0
C      1  0.4627430000000  0.5601770000000  0.5103880000000 1.0
C      1  0.4786050000000  0.5601690000000  0.4677640000000 1.0
C      1  0.5240450000000  0.5601630000000  0.4696780000000 1.0
C      1  0.4890050000000  0.5386640000000  0.4634480000000 1.0
C      1  0.5313640000000  0.5386600000000  0.4782400000000 1.0
C      1  0.5303860000000  0.5386660000000  0.5230960000000 1.0
C      1  0.4874230000000  0.5386740000000  0.5360270000000 1.0
C      1  0.4618480000000  0.5386720000000  0.4991630000000 1.0
C      1  0.5272650000000  0.4819410000000  0.4658040000000 1.0
C      1  0.5409490000000  0.4819460000000  0.5153680000000 1.0
C      1  0.4980390000000  0.4819560000000  0.5436970000000 1.0
C      1  0.4578360000000  0.4819570000000  0.5116420000000 1.0
C      1  0.4758990000000  0.4819480000000  0.4635010000000 1.0
C      1  0.5137510000000  0.5427400000000  0.5476760000000 1.0
C      1  0.4589050000000  0.5427440000000  0.5278010000000 1.0
C      1  0.4608590000000  0.5427360000000  0.4694980000000 1.0
C      1  0.5169120000000  0.5427260000000  0.4533390000000 1.0
C      1  0.5496020000000  0.5427290000000  0.5016560000000 1.0
C      1  0.5122100000000  0.5849240000000  0.5004310000000 1.0
C      1  0.5033600000000  0.5849270000000  0.5117270000000 1.0
C      1  0.4898820000000  0.5849280000000  0.5068010000000 1.0
C      1  0.4904020000000  0.5849260000000  0.4924600000000 1.0
C      1  0.5042020000000  0.5849240000000  0.4885230000000 1.0
C      1  0.5113520000000  0.4727200000000  0.5593360000000 1.0
C      1  0.4470770000000  0.4727240000000  0.5291390000000 1.0
C      1  0.4559350000000  0.4727130000000  0.4586780000000 1.0
C      1  0.5256840000000  0.4727020000000  0.4453280000000 1.0
C      1  0.5599340000000  0.4727060000000  0.5075380000000 1.0
C      1  0.4764290000000  0.4552670000000  0.4385030000000 1.0
C      1  0.5512050000000  0.4552590000000  0.4585890000000 1.0
C      1  0.5552090000000  0.4552700000000  0.5359120000000 1.0
C      1  0.4829080000000  0.4552830000000  0.5636150000000 1.0
C      1  0.4342190000000  0.4552810000000  0.5034130000000 1.0
C      1  0.5570800000000  0.5337230000000  0.4979280000000 1.0
C      1  0.5196080000000  0.5337350000000  0.5536390000000 1.0
C      1  0.4550450000000  0.5337410000000  0.5352160000000 1.0
C      1  0.4526140000000  0.5337320000000  0.4681200000000 1.0
C      1  0.5156760000000  0.5337210000000  0.4450740000000 1.0
C      1  0.4879850000000  0.4289480000000  0.4614950000000 1.0
C      1  0.5329110000000  0.4289440000000  0.4766900000000 1.0
C      1  0.5323420000000  0.4289510000000  0.5241130000000 1.0
C      1  0.4870650000000  0.4289580000000  0.5382260000000 1.0
C      1  0.4596500000000  0.4289570000000  0.4995260000000 1.0
C      1  0.4821010000000  0.4960260000000  0.5544050000000 1.0
C      1  0.4427270000000  0.4960230000000  0.4997900000000 1.0
C      1  0.4825020000000  0.4960110000000  0.4454660000000 1.0
C      1  0.5464580000000  0.4960050000000  0.4665070000000 1.0
C      1  0.5462100000000  0.4960140000000  0.5338350000000 1.0
C      1  0.4655540000000  0.5545170000000  0.5230870000000 1.0
C      1  0.4673960000000  0.5545100000000  0.4743620000000 1.0
C      1  0.5143060000000  0.5545020000000  0.4610580000000 1.0
C      1  0.5414550000000  0.5545040000000  0.5015600000000 1.0
C      1  0.5113250000000  0.5545130000000  0.5398960000000 1.0
C      1  0.5340250000000  0.5019710000000  0.4740590000000 1.0
C      1  0.5351850000000  0.5019780000000  0.5243430000000 1.0
C      1  0.4877220000000  0.5019860000000  0.5409850000000 1.0
C      1  0.4572270000000  0.5019850000000  0.5009870000000 1.0
C      1  0.4858430000000  0.5019750000000  0.4596250000000 1.0
C      1  0.4828020000000  0.5721490000000  0.5262130000000 1.0
C      1  0.4697530000000  0.5721460000000  0.4917280000000 1.0
C      1  0.4985170000000  0.5721390000000  0.4686610000000 1.0
C      1  0.5293440000000  0.5721380000000  0.4888900000000 1.0
C      1  0.5196320000000  0.5721440000000  0.5244590000000 1.0
C      1  0.4875440000000  0.5348350000000  0.5000600000000 1.0
C      1  0.4960930000000  0.5348330000000  0.4881640000000 1.0
C      1  0.5100480000000  0.5348310000000  0.4926190000000 1.0
C      1  0.5101230000000  0.5348330000000  0.5072670000000 1.0
C      1  0.4962150000000  0.5348360000000  0.5118660000000 1.0
C      1  0.4333710000000  0.5257570000000  0.4797560000000 1.0
C      1  0.4986620000000  0.5257420000000  0.4303700000000 1.0
C      1  0.5658070000000  0.5257390000000  0.4772050000000 1.0
C      1  0.5420140000000  0.5257530000000  0.5555370000000 1.0
C      1  0.4601630000000  0.5257640000000  0.5571130000000 1.0
C      1  0.5673850000000  0.5262970000000  0.4647130000000 1.0
C      1  0.5543820000000  0.5263110000000  0.5531770000000 1.0
C      1  0.4662300000000  0.5263240000000  0.5681470000000 1.0
C      1  0.4247510000000  0.5263190000000  0.4889350000000 1.0
C      1  0.4872690000000  0.5263020000000  0.4250090000000 1.0
END
