TITL C-29695-1603-4 -332.958926662574 1000000 -3677.70884985884 0 0 520 (Ci) n - 1
REM
REM in /rds/project/t2_vol4/rds-t2-cs072/BORA/CARBON/from-Arr/AIRSS/Generating-Clusters/GAP-ML-2020/Higher-Symm/Selected-Sizes/Larger-Clusters/Only-C240
REM
REM
REM
REM
REM
REM ./C.cell (db1db5b03a21c153a00b653f6831bbfd)
REM AIRSS Version 0.9.1 bugfix July 2018 build 013d7b7c2542+ Fri, 06 Jul 2018 19:26:36 +0100
REM compiler GCC version 9.3.0
REM options -cpp -mtune=generic -march=x86-64 -g -O0
REM seed 1615034479 -99226059 1864801886 174398664 869800212 1986865741 -1819455689 -1624911401 -510601823 -1062957497 1182036275 -1366621785 571342071 -1895272602 473017137 -2047128000 -1055945530 252474737 -937390553 1789042732 1639433173 -1331482173 90710156 -1691264278 -1067755015 -1072848646 180726419 483284492 -541204018 -1940248915 -2040810835 -1522118009 -1023933079
REM
CELL 1.54180  100.00000  100.00000  100.00000   90.00000   90.00000   90.00000
LATT -1
SFAC C  
C      1  0.5121190000000  0.4597180000000  0.4682480000000 1.0
C      1  0.4878810000000  0.5402820000000  0.5317530000000 1.0
C      1  0.4499420000000  0.4806570000000  0.5189130000000 1.0
C      1  0.5500580000000  0.5193430000000  0.4810870000000 1.0
C      1  0.4870510000000  0.5152500000000  0.5819960000000 1.0
C      1  0.5129490000000  0.4847500000000  0.4180040000000 1.0
C      1  0.5025450000000  0.4664870000000  0.4901470000000 1.0
C      1  0.4974550000000  0.5335130000000  0.5098530000000 1.0
C      1  0.5230450000000  0.5256960000000  0.5560480000000 1.0
C      1  0.4769550000000  0.4743040000000  0.4439520000000 1.0
C      1  0.4539570000000  0.5038250000000  0.4698380000000 1.0
C      1  0.5460430000000  0.4961750000000  0.5301620000000 1.0
C      1  0.4759550000000  0.4794040000000  0.5109340000000 1.0
C      1  0.5240450000000  0.5205960000000  0.4890660000000 1.0
C      1  0.4639190000000  0.4607020000000  0.5295590000000 1.0
C      1  0.5360810000000  0.5392980000000  0.4704410000000 1.0
C      1  0.4603360000000  0.4664870000000  0.4238840000000 1.0
C      1  0.5396640000000  0.5335130000000  0.5761160000000 1.0
C      1  0.4744940000000  0.4799610000000  0.5254170000000 1.0
C      1  0.5255060000000  0.5200390000000  0.4745830000000 1.0
C      1  0.4984800000000  0.4448890000000  0.5004260000000 1.0
C      1  0.5015200000000  0.5551110000000  0.4995740000000 1.0
C      1  0.4945110000000  0.5428910000000  0.5449310000000 1.0
C      1  0.5054890000000  0.4571090000000  0.4550690000000 1.0
C      1  0.4669040000000  0.5555130000000  0.4482750000000 1.0
C      1  0.5330960000000  0.4444870000000  0.5517250000000 1.0
C      1  0.4408560000000  0.5485650000000  0.4889800000000 1.0
C      1  0.5591440000000  0.4514350000000  0.5110200000000 1.0
C      1  0.4619910000000  0.4899430000000  0.5200380000000 1.0
C      1  0.5380090000000  0.5100570000000  0.4799620000000 1.0
C      1  0.4773170000000  0.4651860000000  0.5287300000000 1.0
C      1  0.5226830000000  0.5348140000000  0.4712700000000 1.0
C      1  0.4883270000000  0.5115700000000  0.4475270000000 1.0
C      1  0.5116730000000  0.4884310000000  0.5524720000000 1.0
C      1  0.5752380000000  0.5299420000000  0.4850730000000 1.0
C      1  0.4247630000000  0.4700580000000  0.5149270000000 1.0
C      1  0.4269700000000  0.5276480000000  0.4974790000000 1.0
C      1  0.5730300000000  0.4723520000000  0.5025210000000 1.0
C      1  0.4770570000000  0.5767460000000  0.4435500000000 1.0
C      1  0.5229420000000  0.4232550000000  0.5564500000000 1.0
C      1  0.5758760000000  0.5275070000000  0.5149860000000 1.0
C      1  0.4241240000000  0.4724930000000  0.4850130000000 1.0
C      1  0.4785340000000  0.4737570000000  0.4633600000000 1.0
C      1  0.5214660000000  0.5262430000000  0.5366400000000 1.0
C      1  0.5615310000000  0.5197090000000  0.5517100000000 1.0
C      1  0.4384690000000  0.4802910000000  0.4482900000000 1.0
C      1  0.4464260000000  0.5620090000000  0.4937380000000 1.0
C      1  0.5535740000000  0.4379910000000  0.5062620000000 1.0
C      1  0.5110700000000  0.4709740000000  0.5162890000000 1.0
C      1  0.4889300000000  0.5290260000000  0.4837110000000 1.0
C      1  0.5045050000000  0.5845280000000  0.5050730000000 1.0
C      1  0.4954950000000  0.4154720000000  0.4949270000000 1.0
C      1  0.5293150000000  0.5290220000000  0.5150220000000 1.0
C      1  0.4706850000000  0.4709780000000  0.4849780000000 1.0
C      1  0.4836560000000  0.4228690000000  0.4900880000000 1.0
C      1  0.5163440000000  0.5771310000000  0.5099120000000 1.0
C      1  0.4546930000000  0.4494860000000  0.4389330000000 1.0
C      1  0.5453070000000  0.5505140000000  0.5610670000000 1.0
C      1  0.4735720000000  0.4454630000000  0.4738320000000 1.0
C      1  0.5264280000000  0.5545370000000  0.5261680000000 1.0
C      1  0.4691290000000  0.4230150000000  0.5133880000000 1.0
C      1  0.5308710000000  0.5769850000000  0.4866120000000 1.0
C      1  0.5735230000000  0.5161800000000  0.4925870000000 1.0
C      1  0.4264770000000  0.4838200000000  0.5074130000000 1.0
C      1  0.5361190000000  0.4972260000000  0.5825170000000 1.0
C      1  0.4638810000000  0.5027740000000  0.4174830000000 1.0
C      1  0.5265800000000  0.4888870000000  0.4207880000000 1.0
C      1  0.4734210000000  0.5111130000000  0.5792120000000 1.0
C      1  0.4856090000000  0.5548880000000  0.5505330000000 1.0
C      1  0.5143910000000  0.4451120000000  0.4494670000000 1.0
C      1  0.4979350000000  0.4840730000000  0.4467900000000 1.0
C      1  0.5020650000000  0.5159270000000  0.5532100000000 1.0
C      1  0.4216400000000  0.4843640000000  0.4926920000000 1.0
C      1  0.5783600000000  0.5156360000000  0.5073080000000 1.0
C      1  0.4737920000000  0.5484230000000  0.4801010000000 1.0
C      1  0.5262080000000  0.4515770000000  0.5198990000000 1.0
C      1  0.5278910000000  0.4634670000000  0.5873850000000 1.0
C      1  0.4721090000000  0.5365330000000  0.4126150000000 1.0
C      1  0.5604190000000  0.4797660000000  0.4624210000000 1.0
C      1  0.4395810000000  0.5202340000000  0.5375790000000 1.0
C      1  0.4587620000000  0.4320820000000  0.5170860000000 1.0
C      1  0.5412380000000  0.5679180000000  0.4829140000000 1.0
C      1  0.5050490000000  0.4306580000000  0.5444240000000 1.0
C      1  0.4949510000000  0.5693420000000  0.4555760000000 1.0
C      1  0.5561750000000  0.4653150000000  0.5335970000000 1.0
C      1  0.4438250000000  0.5346850000000  0.4664020000000 1.0
C      1  0.5129090000000  0.5521760000000  0.5322500000000 1.0
C      1  0.4870910000000  0.4478240000000  0.4677500000000 1.0
C      1  0.4276220000000  0.4662840000000  0.5288430000000 1.0
C      1  0.5723780000000  0.5337160000000  0.4711560000000 1.0
C      1  0.4635130000000  0.4794620000000  0.4191860000000 1.0
C      1  0.5364870000000  0.5205380000000  0.5808140000000 1.0
C      1  0.4683520000000  0.4990280000000  0.5741310000000 1.0
C      1  0.5316480000000  0.5009720000000  0.4258690000000 1.0
C      1  0.4993050000000  0.4862450000000  0.4617050000000 1.0
C      1  0.5006950000000  0.5137550000000  0.5382950000000 1.0
C      1  0.5081640000000  0.4808050000000  0.5392330000000 1.0
C      1  0.4918360000000  0.5191950000000  0.4607670000000 1.0
C      1  0.5258550000000  0.5690220000000  0.5334280000000 1.0
C      1  0.4741450000000  0.4309780000000  0.4665730000000 1.0
C      1  0.5386020000000  0.5459960000000  0.5280200000000 1.0
C      1  0.4613980000000  0.4540040000000  0.4719800000000 1.0
C      1  0.4803470000000  0.5743980000000  0.5318570000000 1.0
C      1  0.5196530000000  0.4256020000000  0.4681430000000 1.0
C      1  0.5141510000000  0.4904080000000  0.4863050000000 1.0
C      1  0.4858490000000  0.5095920000000  0.5136950000000 1.0
C      1  0.5080720000000  0.5402850000000  0.4755870000000 1.0
C      1  0.4919280000000  0.4597150000000  0.5244130000000 1.0
C      1  0.5716130000000  0.5388830000000  0.5079820000000 1.0
C      1  0.4283870000000  0.4611170000000  0.4920180000000 1.0
C      1  0.4591310000000  0.4344140000000  0.5313330000000 1.0
C      1  0.5408690000000  0.5655860000000  0.4686670000000 1.0
C      1  0.5280190000000  0.4696940000000  0.5341490000000 1.0
C      1  0.4719810000000  0.5303060000000  0.4658510000000 1.0
C      1  0.4413220000000  0.4853160000000  0.5322900000000 1.0
C      1  0.5586780000000  0.5146830000000  0.4677100000000 1.0
C      1  0.4548700000000  0.4626770000000  0.5694130000000 1.0
C      1  0.5451300000000  0.5373230000000  0.4305880000000 1.0
C      1  0.4831090000000  0.4773820000000  0.5721060000000 1.0
C      1  0.5168910000000  0.5226180000000  0.4278940000000 1.0
C      1  0.4639180000000  0.5042900000000  0.5265210000000 1.0
C      1  0.5360810000000  0.4957100000000  0.4734790000000 1.0
C      1  0.5042340000000  0.5604520000000  0.5247940000000 1.0
C      1  0.4957660000000  0.4395480000000  0.4752070000000 1.0
C      1  0.4598900000000  0.5160430000000  0.5175320000000 1.0
C      1  0.5401100000000  0.4839570000000  0.4824680000000 1.0
C      1  0.4767040000000  0.5631200000000  0.4409860000000 1.0
C      1  0.5232960000000  0.4368800000000  0.5590140000000 1.0
C      1  0.5437810000000  0.5082840000000  0.5026110000000 1.0
C      1  0.4562190000000  0.4917150000000  0.4973890000000 1.0
C      1  0.4895630000000  0.5575290000000  0.4364400000000 1.0
C      1  0.5104370000000  0.4424710000000  0.5635600000000 1.0
C      1  0.5573420000000  0.4513880000000  0.5268180000000 1.0
C      1  0.4426580000000  0.5486120000000  0.4731820000000 1.0
C      1  0.4942490000000  0.5428560000000  0.4342260000000 1.0
C      1  0.5057510000000  0.4571440000000  0.5657740000000 1.0
C      1  0.4942450000000  0.4239820000000  0.5201250000000 1.0
C      1  0.5057550000000  0.5760180000000  0.4798750000000 1.0
C      1  0.5132810000000  0.4153390000000  0.5089600000000 1.0
C      1  0.4867190000000  0.5846610000000  0.4910400000000 1.0
C      1  0.4848110000000  0.5799920000000  0.4545090000000 1.0
C      1  0.5151890000000  0.4200080000000  0.5454910000000 1.0
C      1  0.5033960000000  0.5168750000000  0.4695280000000 1.0
C      1  0.4966040000000  0.4831250000000  0.5304720000000 1.0
C      1  0.5253600000000  0.4683080000000  0.4929020000000 1.0
C      1  0.4746400000000  0.5316920000000  0.5070980000000 1.0
C      1  0.5190930000000  0.4167650000000  0.5218380000000 1.0
C      1  0.4809070000000  0.5832350000000  0.4781620000000 1.0
C      1  0.5295110000000  0.5599960000000  0.4996350000000 1.0
C      1  0.4704890000000  0.4400040000000  0.5003650000000 1.0
C      1  0.5188870000000  0.5359580000000  0.4324760000000 1.0
C      1  0.4811130000000  0.4640420000000  0.5675240000000 1.0
C      1  0.4213300000000  0.4922550000000  0.4627960000000 1.0
C      1  0.5786710000000  0.5077450000000  0.5372040000000 1.0
C      1  0.4440010000000  0.4640570000000  0.5627500000000 1.0
C      1  0.5559990000000  0.5359430000000  0.4372500000000 1.0
C      1  0.5581590000000  0.5190260000000  0.4936740000000 1.0
C      1  0.4418410000000  0.4809740000000  0.5063270000000 1.0
C      1  0.4388660000000  0.4493680000000  0.4728540000000 1.0
C      1  0.5611350000000  0.5506320000000  0.5271460000000 1.0
C      1  0.4666280000000  0.5598430000000  0.5351680000000 1.0
C      1  0.5333720000000  0.4401570000000  0.4648320000000 1.0
C      1  0.4789370000000  0.5637110000000  0.5414550000000 1.0
C      1  0.5210630000000  0.4362900000000  0.4585450000000 1.0
C      1  0.5365580000000  0.4619130000000  0.5151640000000 1.0
C      1  0.4634420000000  0.5380870000000  0.4848360000000 1.0
C      1  0.4877380000000  0.4428450000000  0.5567000000000 1.0
C      1  0.5122620000000  0.5571560000000  0.4432990000000 1.0
C      1  0.4491090000000  0.5620050000000  0.5087570000000 1.0
C      1  0.5508910000000  0.4379950000000  0.4912430000000 1.0
C      1  0.5463620000000  0.4571850000000  0.5051760000000 1.0
C      1  0.4536380000000  0.5428150000000  0.4948240000000 1.0
C      1  0.5094240000000  0.5609250000000  0.5104760000000 1.0
C      1  0.4905760000000  0.4390750000000  0.4895240000000 1.0
C      1  0.4771200000000  0.5502450000000  0.5598880000000 1.0
C      1  0.5228790000000  0.4497550000000  0.4401120000000 1.0
C      1  0.4742900000000  0.4318150000000  0.4530070000000 1.0
C      1  0.5257100000000  0.5681850000000  0.5469930000000 1.0
C      1  0.4767800000000  0.4974900000000  0.4136640000000 1.0
C      1  0.5232200000000  0.5025100000000  0.5863360000000 1.0
C      1  0.4990590000000  0.4162270000000  0.5087640000000 1.0
C      1  0.5009410000000  0.5837730000000  0.4912370000000 1.0
C      1  0.5440760000000  0.5193500000000  0.4508400000000 1.0
C      1  0.4559240000000  0.4806500000000  0.5491600000000 1.0
C      1  0.4682550000000  0.4910130000000  0.5060760000000 1.0
C      1  0.5317450000000  0.5089870000000  0.4939240000000 1.0
C      1  0.4552160000000  0.4657930000000  0.5191010000000 1.0
C      1  0.5447840000000  0.5342070000000  0.4808990000000 1.0
C      1  0.5212710000000  0.5389840000000  0.5084020000000 1.0
C      1  0.4787290000000  0.4610160000000  0.4915980000000 1.0
C      1  0.5498420000000  0.5382020000000  0.5667580000000 1.0
C      1  0.4501580000000  0.4617980000000  0.4332420000000 1.0
C      1  0.5077260000000  0.4153570000000  0.4873600000000 1.0
C      1  0.4922740000000  0.5846430000000  0.5126400000000 1.0
C      1  0.4611610000000  0.5333480000000  0.4375740000000 1.0
C      1  0.5388390000000  0.4666520000000  0.5624260000000 1.0
C      1  0.5218510000000  0.5092200000000  0.4532620000000 1.0
C      1  0.4781490000000  0.4907800000000  0.5467380000000 1.0
C      1  0.5279250000000  0.5138960000000  0.4308540000000 1.0
C      1  0.4720750000000  0.4861040000000  0.5691460000000 1.0
C      1  0.4771880000000  0.4829480000000  0.4153530000000 1.0
C      1  0.5228120000000  0.5170520000000  0.5846470000000 1.0
C      1  0.5202220000000  0.4953640000000  0.4725500000000 1.0
C      1  0.4797780000000  0.5046360000000  0.5274500000000 1.0
C      1  0.4715320000000  0.5577320000000  0.5027090000000 1.0
C      1  0.5284670000000  0.4422680000000  0.4972910000000 1.0
C      1  0.5066080000000  0.4648090000000  0.4318300000000 1.0
C      1  0.4933920000000  0.5351910000000  0.5681700000000 1.0
C      1  0.5537290000000  0.4556370000000  0.4725260000000 1.0
C      1  0.4462700000000  0.5443630000000  0.5274730000000 1.0
C      1  0.4674510000000  0.5181980000000  0.4380010000000 1.0
C      1  0.5325490000000  0.4818020000000  0.5619990000000 1.0
C      1  0.5098470000000  0.5538250000000  0.5587160000000 1.0
C      1  0.4901530000000  0.4461750000000  0.4412840000000 1.0
C      1  0.4787810000000  0.5256860000000  0.5449060000000 1.0
C      1  0.5212190000000  0.4743140000000  0.4550940000000 1.0
C      1  0.4960660000000  0.4256950000000  0.4706730000000 1.0
C      1  0.5039340000000  0.5743050000000  0.5293270000000 1.0
C      1  0.5483070000000  0.5142190000000  0.5450440000000 1.0
C      1  0.4516930000000  0.4857810000000  0.4549560000000 1.0
C      1  0.4930900000000  0.5299400000000  0.5532850000000 1.0
C      1  0.5069100000000  0.4700600000000  0.4467150000000 1.0
C      1  0.5274300000000  0.5745660000000  0.5004490000000 1.0
C      1  0.4725700000000  0.4254340000000  0.4995520000000 1.0
C      1  0.5667570000000  0.5400500000000  0.5345080000000 1.0
C      1  0.4332430000000  0.4599500000000  0.4654920000000 1.0
C      1  0.4637340000000  0.5311780000000  0.4216190000000 1.0
C      1  0.5362660000000  0.4688220000000  0.5783810000000 1.0
C      1  0.5733710000000  0.5475420000000  0.4688870000000 1.0
C      1  0.4266300000000  0.4524580000000  0.5311130000000 1.0
C      1  0.5155110000000  0.5199290000000  0.5165630000000 1.0
C      1  0.4844890000000  0.4800710000000  0.4834370000000 1.0
C      1  0.4586660000000  0.5503820000000  0.5067590000000 1.0
C      1  0.5413340000000  0.4496180000000  0.4932410000000 1.0
C      1  0.5223480000000  0.4619950000000  0.4345480000000 1.0
C      1  0.4776520000000  0.5380050000000  0.5654510000000 1.0
C      1  0.4948540000000  0.4549960000000  0.4308670000000 1.0
C      1  0.5051460000000  0.5450040000000  0.5691330000000 1.0
C      1  0.5102840000000  0.5042620000000  0.5326840000000 1.0
C      1  0.4897160000000  0.4957380000000  0.4673160000000 1.0
C      1  0.5417840000000  0.5328190000000  0.5064080000000 1.0
C      1  0.4582160000000  0.4671810000000  0.4935930000000 1.0
C      1  0.4504430000000  0.4462490000000  0.4649240000000 1.0
C      1  0.5495570000000  0.5537510000000  0.5350760000000 1.0
C      1  0.4526500000000  0.5012170000000  0.4540360000000 1.0
C      1  0.5473500000000  0.4987830000000  0.5459640000000 1.0
C      1  0.5113870000000  0.5264750000000  0.5826040000000 1.0
C      1  0.4886130000000  0.4735250000000  0.4173960000000 1.0
C      1  0.5568380000000  0.5052050000000  0.5727200000000 1.0
C      1  0.4431620000000  0.4947950000000  0.4272800000000 1.0
C      1  0.5320620000000  0.5407490000000  0.4363730000000 1.0
C      1  0.4679380000000  0.4592510000000  0.5636270000000 1.0
C      1  0.4956550000000  0.5436720000000  0.4661530000000 1.0
C      1  0.5043450000000  0.4563280000000  0.5338470000000 1.0
C      1  0.4471580000000  0.4678520000000  0.5476160000000 1.0
C      1  0.5528420000000  0.5321480000000  0.4523840000000 1.0
C      1  0.5288460000000  0.5433570000000  0.5755740000000 1.0
C      1  0.4711540000000  0.4566430000000  0.4244250000000 1.0
C      1  0.4897830000000  0.4785000000000  0.5073560000000 1.0
C      1  0.5102170000000  0.5215000000000  0.4926440000000 1.0
C      1  0.5637010000000  0.5088860000000  0.5607150000000 1.0
C      1  0.4363000000000  0.4911140000000  0.4392850000000 1.0
C      1  0.4565510000000  0.4434250000000  0.5059630000000 1.0
C      1  0.5434490000000  0.5565750000000  0.4940370000000 1.0
C      1  0.5627740000000  0.5425010000000  0.5480790000000 1.0
C      1  0.4372260000000  0.4574990000000  0.4519210000000 1.0
C      1  0.5503400000000  0.5571160000000  0.4623210000000 1.0
C      1  0.4496600000000  0.4428840000000  0.5376790000000 1.0
C      1  0.4973440000000  0.4821950000000  0.5724300000000 1.0
C      1  0.5026570000000  0.5178050000000  0.4275700000000 1.0
C      1  0.4827830000000  0.4226420000000  0.4751570000000 1.0
C      1  0.5172170000000  0.5773580000000  0.5248430000000 1.0
C      1  0.4505270000000  0.4910100000000  0.5420440000000 1.0
C      1  0.5494730000000  0.5089900000000  0.4579560000000 1.0
C      1  0.4666800000000  0.4511360000000  0.5520320000000 1.0
C      1  0.5333190000000  0.5488640000000  0.4479680000000 1.0
C      1  0.4473580000000  0.5297330000000  0.4398370000000 1.0
C      1  0.5526420000000  0.4702670000000  0.5601630000000 1.0
C      1  0.4847720000000  0.4605410000000  0.4222770000000 1.0
C      1  0.5152280000000  0.5394590000000  0.5777230000000 1.0
C      1  0.4466120000000  0.5197480000000  0.4287800000000 1.0
C      1  0.5533880000000  0.4802520000000  0.5712200000000 1.0
C      1  0.5757830000000  0.4768560000000  0.4887930000000 1.0
C      1  0.4242170000000  0.5231440000000  0.5112070000000 1.0
C      1  0.4474950000000  0.4477570000000  0.4512690000000 1.0
C      1  0.5525060000000  0.5522430000000  0.5487310000000 1.0
C      1  0.5073860000000  0.4543700000000  0.4961670000000 1.0
C      1  0.4926140000000  0.5456300000000  0.5038340000000 1.0
C      1  0.5506190000000  0.5205610000000  0.5063530000000 1.0
C      1  0.4493810000000  0.4794390000000  0.4936470000000 1.0
C      1  0.5324760000000  0.5538600000000  0.5663470000000 1.0
C      1  0.4675240000000  0.4461400000000  0.4336530000000 1.0
C      1  0.5272880000000  0.5667450000000  0.4641710000000 1.0
C      1  0.4727120000000  0.4332550000000  0.5358290000000 1.0
C      1  0.4800160000000  0.4285670000000  0.5228410000000 1.0
C      1  0.5199840000000  0.5714330000000  0.4771590000000 1.0
C      1  0.4759690000000  0.4410720000000  0.5481650000000 1.0
C      1  0.5240310000000  0.5589280000000  0.4518350000000 1.0
C      1  0.4585950000000  0.5305710000000  0.4720780000000 1.0
C      1  0.5414050000000  0.4694290000000  0.5279220000000 1.0
C      1  0.5599480000000  0.4461480000000  0.4824840000000 1.0
C      1  0.4400520000000  0.5538520000000  0.5175160000000 1.0
C      1  0.4534980000000  0.4568590000000  0.4845560000000 1.0
C      1  0.5465020000000  0.5431410000000  0.5154440000000 1.0
C      1  0.5122330000000  0.4934950000000  0.5889010000000 1.0
C      1  0.4877670000000  0.5065050000000  0.4110990000000 1.0
C      1  0.4607700000000  0.5164940000000  0.4237780000000 1.0
C      1  0.5392300000000  0.4835050000000  0.5762220000000 1.0
C      1  0.5227080000000  0.5609210000000  0.5583750000000 1.0
C      1  0.4772920000000  0.4390790000000  0.4416250000000 1.0
C      1  0.5205970000000  0.4817370000000  0.5158460000000 1.0
C      1  0.4794030000000  0.5182640000000  0.4841540000000 1.0
C      1  0.4847200000000  0.5299350000000  0.4128780000000 1.0
C      1  0.5152810000000  0.4700650000000  0.5871210000000 1.0
C      1  0.5149780000000  0.4876530000000  0.4607690000000 1.0
C      1  0.4850220000000  0.5123470000000  0.5392310000000 1.0
C      1  0.5636010000000  0.5269920000000  0.4619820000000 1.0
C      1  0.4363990000000  0.4730080000000  0.5380180000000 1.0
C      1  0.4310150000000  0.5454500000000  0.5114120000000 1.0
C      1  0.5689850000000  0.4545500000000  0.4885880000000 1.0
C      1  0.5090340000000  0.5466770000000  0.5452540000000 1.0
C      1  0.4909660000000  0.4533230000000  0.4547470000000 1.0
C      1  0.5423610000000  0.5407510000000  0.4931470000000 1.0
C      1  0.4576390000000  0.4592490000000  0.5068530000000 1.0
C      1  0.5308590000000  0.4736410000000  0.5073580000000 1.0
C      1  0.4691410000000  0.5263590000000  0.4926420000000 1.0
C      1  0.4585290000000  0.5197890000000  0.5584970000000 1.0
C      1  0.5414710000000  0.4802110000000  0.4415030000000 1.0
C      1  0.5682790000000  0.4812370000000  0.5122070000000 1.0
C      1  0.4317210000000  0.5187630000000  0.4877930000000 1.0
C      1  0.4319850000000  0.4958510000000  0.5285920000000 1.0
C      1  0.5680150000000  0.5041490000000  0.4714090000000 1.0
C      1  0.5627190000000  0.4777340000000  0.5249720000000 1.0
C      1  0.4372800000000  0.5222660000000  0.4750280000000 1.0
C      1  0.4995050000000  0.5063300000000  0.4187240000000 1.0
C      1  0.5004950000000  0.4936700000000  0.5812760000000 1.0
C      1  0.5157650000000  0.4639120000000  0.5552040000000 1.0
C      1  0.4842350000000  0.5360880000000  0.4447960000000 1.0
C      1  0.5683030000000  0.5537990000000  0.4912700000000 1.0
C      1  0.4316970000000  0.4462000000000  0.5087300000000 1.0
C      1  0.4671560000000  0.5709940000000  0.5257370000000 1.0
C      1  0.5328440000000  0.4290060000000  0.4742630000000 1.0
C      1  0.5363050000000  0.4403110000000  0.5382680000000 1.0
C      1  0.4636950000000  0.5596890000000  0.4617320000000 1.0
C      1  0.4788070000000  0.5184210000000  0.4688920000000 1.0
C      1  0.5211930000000  0.4815790000000  0.5311080000000 1.0
C      1  0.4775500000000  0.4468160000000  0.4889060000000 1.0
C      1  0.5224500000000  0.5531840000000  0.5110940000000 1.0
C      1  0.4922810000000  0.4752500000000  0.4707320000000 1.0
C      1  0.5077190000000  0.5247500000000  0.5292680000000 1.0
C      1  0.4628170000000  0.5114400000000  0.5698440000000 1.0
C      1  0.5371830000000  0.4885600000000  0.4301560000000 1.0
C      1  0.5367490000000  0.4536940000000  0.4670810000000 1.0
C      1  0.4632520000000  0.5463060000000  0.5329190000000 1.0
C      1  0.5180820000000  0.4779340000000  0.5615270000000 1.0
C      1  0.4819180000000  0.5220660000000  0.4384720000000 1.0
C      1  0.5417010000000  0.4578780000000  0.4804170000000 1.0
C      1  0.4582990000000  0.5421220000000  0.5195830000000 1.0
C      1  0.4916910000000  0.5285120000000  0.4268070000000 1.0
C      1  0.5083090000000  0.4714880000000  0.5731930000000 1.0
C      1  0.5234470000000  0.5085020000000  0.5379270000000 1.0
C      1  0.4765530000000  0.4914980000000  0.4620730000000 1.0
C      1  0.5600840000000  0.5328770000000  0.5579710000000 1.0
C      1  0.4399160000000  0.4671230000000  0.4420290000000 1.0
C      1  0.5689360000000  0.4584450000000  0.5022420000000 1.0
C      1  0.4310640000000  0.5415550000000  0.4977580000000 1.0
C      1  0.5473700000000  0.4412330000000  0.5289070000000 1.0
C      1  0.4526300000000  0.5587670000000  0.4710930000000 1.0
C      1  0.4235810000000  0.4969880000000  0.4862730000000 1.0
C      1  0.5764190000000  0.5030120000000  0.5137270000000 1.0
C      1  0.5001990000000  0.4910340000000  0.5601220000000 1.0
C      1  0.4998010000000  0.5089660000000  0.4398780000000 1.0
C      1  0.4828110000000  0.5032980000000  0.5510380000000 1.0
C      1  0.5171890000000  0.4967020000000  0.4489620000000 1.0
C      1  0.4587090000000  0.5724510000000  0.5143530000000 1.0
C      1  0.5412910000000  0.4275490000000  0.4856470000000 1.0
C      1  0.5314220000000  0.5167400000000  0.4451280000000 1.0
C      1  0.4685780000000  0.4832600000000  0.5548720000000 1.0
C      1  0.5027500000000  0.5266930000000  0.4809300000000 1.0
C      1  0.4972500000000  0.4733070000000  0.5190700000000 1.0
C      1  0.5754490000000  0.5039640000000  0.4835460000000 1.0
C      1  0.4245510000000  0.4960360000000  0.5164540000000 1.0
C      1  0.4816100000000  0.5687180000000  0.4806360000000 1.0
C      1  0.5183900000000  0.4312820000000  0.5193640000000 1.0
C      1  0.4314070000000  0.4733740000000  0.4718390000000 1.0
C      1  0.5685930000000  0.5266260000000  0.5281610000000 1.0
C      1  0.5302060000000  0.4578670000000  0.5552210000000 1.0
C      1  0.4697940000000  0.5421330000000  0.4447790000000 1.0
C      1  0.5187720000000  0.4178030000000  0.4960500000000 1.0
C      1  0.4812280000000  0.5821970000000  0.5039500000000 1.0
C      1  0.5672970000000  0.4837450000000  0.5461660000000 1.0
C      1  0.4327030000000  0.5162550000000  0.4538340000000 1.0
C      1  0.5065190000000  0.5530660000000  0.4857510000000 1.0
C      1  0.4934810000000  0.4469340000000  0.5142490000000 1.0
C      1  0.4881680000000  0.4949610000000  0.4817850000000 1.0
C      1  0.5118320000000  0.5050390000000  0.5182150000000 1.0
C      1  0.4650950000000  0.5060510000000  0.4465970000000 1.0
C      1  0.5349050000000  0.4939490000000  0.5534030000000 1.0
C      1  0.5198840000000  0.5587710000000  0.4864960000000 1.0
C      1  0.4801160000000  0.4412290000000  0.5135050000000 1.0
C      1  0.4740560000000  0.5351410000000  0.5331850000000 1.0
C      1  0.5259440000000  0.4648590000000  0.4668150000000 1.0
C      1  0.5637310000000  0.5572400000000  0.4657910000000 1.0
C      1  0.4362690000000  0.4427600000000  0.5342090000000 1.0
C      1  0.4776970000000  0.4989190000000  0.4484090000000 1.0
C      1  0.5223030000000  0.5010810000000  0.5515910000000 1.0
C      1  0.4287060000000  0.5337030000000  0.5196190000000 1.0
C      1  0.5712940000000  0.4662970000000  0.4803810000000 1.0
C      1  0.4507170000000  0.5155030000000  0.5464960000000 1.0
C      1  0.5492830000000  0.4844970000000  0.4535040000000 1.0
C      1  0.5338350000000  0.5307210000000  0.5292830000000 1.0
C      1  0.4661650000000  0.4692800000000  0.4707170000000 1.0
C      1  0.5720150000000  0.5187470000000  0.5401230000000 1.0
C      1  0.4279860000000  0.4812530000000  0.4598770000000 1.0
C      1  0.4708970000000  0.5722660000000  0.5072010000000 1.0
C      1  0.5291030000000  0.4277340000000  0.4927990000000 1.0
C      1  0.5081730000000  0.4194340000000  0.4737770000000 1.0
C      1  0.4918270000000  0.5805660000000  0.5262230000000 1.0
C      1  0.5527600000000  0.4973210000000  0.5001190000000 1.0
C      1  0.4472400000000  0.5026790000000  0.4998810000000 1.0
C      1  0.4969960000000  0.5252380000000  0.5790190000000 1.0
C      1  0.5030040000000  0.4747620000000  0.4209810000000 1.0
C      1  0.4942160000000  0.5044090000000  0.5601660000000 1.0
C      1  0.5057840000000  0.4955910000000  0.4398340000000 1.0
C      1  0.4382730000000  0.5048980000000  0.4459620000000 1.0
C      1  0.5617280000000  0.4951020000000  0.5540380000000 1.0
C      1  0.4360510000000  0.5043020000000  0.4897620000000 1.0
C      1  0.5639490000000  0.4956980000000  0.5102380000000 1.0
C      1  0.5033590000000  0.4357810000000  0.5215110000000 1.0
C      1  0.4966410000000  0.5642190000000  0.4784890000000 1.0
C      1  0.4525170000000  0.5145000000000  0.5052880000000 1.0
C      1  0.5474830000000  0.4855000000000  0.4947120000000 1.0
C      1  0.4700020000000  0.5281440000000  0.5570400000000 1.0
C      1  0.5299980000000  0.4718560000000  0.4429600000000 1.0
C      1  0.4645370000000  0.4931540000000  0.4703450000000 1.0
C      1  0.5354630000000  0.5068460000000  0.5296550000000 1.0
C      1  0.5707640000000  0.5575940000000  0.4781840000000 1.0
C      1  0.4292360000000  0.4424060000000  0.5218160000000 1.0
C      1  0.5551620000000  0.5176420000000  0.5216480000000 1.0
C      1  0.4448380000000  0.4823580000000  0.4783520000000 1.0
C      1  0.5163320000000  0.5137830000000  0.5579020000000 1.0
C      1  0.4836670000000  0.4862170000000  0.4420980000000 1.0
C      1  0.5142010000000  0.4810530000000  0.5946230000000 1.0
C      1  0.4857990000000  0.5189470000000  0.4053770000000 1.0
C      1  0.4555380000000  0.4916860000000  0.4205560000000 1.0
C      1  0.5444630000000  0.5083130000000  0.5794440000000 1.0
C      1  0.4404260000000  0.5286140000000  0.4524020000000 1.0
C      1  0.5595740000000  0.4713860000000  0.5475980000000 1.0
C      1  0.4997280000000  0.5040890000000  0.5102040000000 1.0
C      1  0.5002720000000  0.4959110000000  0.4897960000000 1.0
C      1  0.4663930000000  0.5292750000000  0.5193240000000 1.0
C      1  0.5336070000000  0.4707250000000  0.4806760000000 1.0
C      1  0.4572510000000  0.5181370000000  0.4924000000000 1.0
C      1  0.5427490000000  0.4818630000000  0.5076000000000 1.0
C      1  0.5718510000000  0.4860020000000  0.5329770000000 1.0
C      1  0.4281490000000  0.5139980000000  0.4670230000000 1.0
C      1  0.5084620000000  0.4414500000000  0.5346360000000 1.0
C      1  0.4915380000000  0.5585500000000  0.4653640000000 1.0
C      1  0.4947900000000  0.5053390000000  0.5758290000000 1.0
C      1  0.5052110000000  0.4946600000000  0.4241710000000 1.0
C      1  0.4709790000000  0.5610150000000  0.4881280000000 1.0
C      1  0.5290210000000  0.4389850000000  0.5118720000000 1.0
C      1  0.5601470000000  0.5484140000000  0.5126160000000 1.0
C      1  0.4398530000000  0.4515850000000  0.4873840000000 1.0
C      1  0.5104070000000  0.5292650000000  0.5053150000000 1.0
C      1  0.4895930000000  0.4707350000000  0.4946850000000 1.0
C      1  0.4215510000000  0.5019100000000  0.4721840000000 1.0
C      1  0.5784490000000  0.4980900000000  0.5278160000000 1.0
C      1  0.4762960000000  0.5592000000000  0.4689180000000 1.0
C      1  0.5237040000000  0.4408000000000  0.5310820000000 1.0
C      1  0.5440390000000  0.4960600000000  0.4605180000000 1.0
C      1  0.4559610000000  0.5039400000000  0.5394820000000 1.0
C      1  0.4532640000000  0.5172960000000  0.4773470000000 1.0
C      1  0.5467360000000  0.4827040000000  0.5226530000000 1.0
C      1  0.5032460000000  0.4671640000000  0.4760940000000 1.0
C      1  0.4967540000000  0.5328360000000  0.5239060000000 1.0
C      1  0.5575630000000  0.5568080000000  0.5002910000000 1.0
C      1  0.4424370000000  0.4431920000000  0.4997090000000 1.0
C      1  0.4909400000000  0.4549050000000  0.5638810000000 1.0
C      1  0.5090600000000  0.5450950000000  0.4361190000000 1.0
C      1  0.5741920000000  0.5408910000000  0.4943490000000 1.0
C      1  0.4258080000000  0.4591090000000  0.5056510000000 1.0
C      1  0.4826750000000  0.5876210000000  0.4658080000000 1.0
C      1  0.5173240000000  0.4123790000000  0.5341920000000 1.0
C      1  0.4836320000000  0.5392850000000  0.4750250000000 1.0
C      1  0.5163680000000  0.4607150000000  0.5249750000000 1.0
C      1  0.5436900000000  0.5193560000000  0.5314860000000 1.0
C      1  0.4563110000000  0.4806440000000  0.4685150000000 1.0
C      1  0.4431820000000  0.4972450000000  0.4777810000000 1.0
C      1  0.5568180000000  0.5027550000000  0.5222190000000 1.0
C      1  0.4795900000000  0.5005220000000  0.5026440000000 1.0
C      1  0.5204100000000  0.4994780000000  0.4973560000000 1.0
C      1  0.5434540000000  0.5444900000000  0.4576180000000 1.0
C      1  0.4565460000000  0.4555100000000  0.5423820000000 1.0
C      1  0.4400150000000  0.5083610000000  0.4314580000000 1.0
C      1  0.5599850000000  0.4916380000000  0.5685420000000 1.0
C      1  0.5435210000000  0.4355260000000  0.5160280000000 1.0
C      1  0.4564790000000  0.5644740000000  0.4839720000000 1.0
C      1  0.4797790000000  0.5045310000000  0.4886710000000 1.0
C      1  0.5202210000000  0.4954690000000  0.5113290000000 1.0
C      1  0.4936440000000  0.4922870000000  0.5033820000000 1.0
C      1  0.5063560000000  0.5077130000000  0.4966180000000 1.0
C      1  0.4802440000000  0.4647160000000  0.4526020000000 1.0
C      1  0.5197560000000  0.5352840000000  0.5473990000000 1.0
C      1  0.4832650000000  0.4892860000000  0.5326370000000 1.0
C      1  0.5167350000000  0.5107140000000  0.4673630000000 1.0
C      1  0.4794830000000  0.5463770000000  0.5066830000000 1.0
C      1  0.5205170000000  0.4536230000000  0.4933170000000 1.0
C      1  0.5754040000000  0.4893500000000  0.4822630000000 1.0
C      1  0.4245960000000  0.5106500000000  0.5177370000000 1.0
C      1  0.4931240000000  0.5336130000000  0.4561050000000 1.0
C      1  0.5068760000000  0.4663870000000  0.5438950000000 1.0
C      1  0.5678490000000  0.4898500000000  0.4695780000000 1.0
C      1  0.4321510000000  0.5101500000000  0.5304220000000 1.0
C      1  0.4865010000000  0.5241560000000  0.5109140000000 1.0
C      1  0.5134990000000  0.4758440000000  0.4890860000000 1.0
C      1  0.4375470000000  0.5330910000000  0.5307620000000 1.0
C      1  0.5624530000000  0.4669090000000  0.4692380000000 1.0
C      1  0.4999350000000  0.4359100000000  0.5564960000000 1.0
C      1  0.5000650000000  0.5640900000000  0.4435040000000 1.0
END
