TITL C-3052148-2842-12 -0.0759296551773957 1000000 -1632.43651411063 0 0 240 (C1) n - 1
REM
REM in /scratch/bkarasulu/Only-C240
REM
REM
REM
REM
REM
REM ./C.cell (db1db5b03a21c153a00b653f6831bbfd)
REM
REM compiler GCC version 9.2.1 20190827 (Red Hat 9.2.1-1)
REM options -cpp -mtune=generic -march=x86-64 -g -O0 -fpre-include=/usr/include/finclude/math-vector-fortran.h
REM seed 313772828 -429422637 1173703272 251011003 -1249370767 531265355 2068419939 915775411 -1017649837 601061127 196292721 2072176836 1091640898 1133821570 618604335 -1497809774 -987935096 -1931464917 -111310633 528093350 716383887 1450691745 765092834 1058946876 -1159064236 -307318001 -785796907 1174315861 774404505 990855256 -2017392443 -2115665873 916926711
REM
CELL 1.54180  100.00000  100.00000  100.00000   90.00000   90.00000   90.00000
LATT -1
SFAC C  
C      1  0.5603610000000  0.5275870000000  0.5389080000000 1.0
C      1  0.5799780000000  0.5621730000000  0.4788150000000 1.0
C      1  0.5115990000000  0.4910820000000  0.4922770000000 1.0
C      1  0.5098880000000  0.4986770000000  0.5123510000000 1.0
C      1  0.5062850000000  0.5787630000000  0.5024870000000 1.0
C      1  0.5092040000000  0.5777800000000  0.4819860000000 1.0
C      1  0.5618490000000  0.4738950000000  0.4716580000000 1.0
C      1  0.5654010000000  0.4796280000000  0.5200810000000 1.0
C      1  0.4599570000000  0.4491570000000  0.5334000000000 1.0
C      1  0.4601190000000  0.4443610000000  0.4758930000000 1.0
C      1  0.4956260000000  0.4391420000000  0.5427770000000 1.0
C      1  0.4925740000000  0.4357380000000  0.4606480000000 1.0
C      1  0.5549520000000  0.4807860000000  0.4826590000000 1.0
C      1  0.5567850000000  0.4838300000000  0.5092580000000 1.0
C      1  0.5733820000000  0.4680370000000  0.5192350000000 1.0
C      1  0.5712810000000  0.4638840000000  0.4747760000000 1.0
C      1  0.4639960000000  0.5431820000000  0.5198210000000 1.0
C      1  0.4617160000000  0.5402480000000  0.4735680000000 1.0
C      1  0.4567190000000  0.5259000000000  0.4361840000000 1.0
C      1  0.4617570000000  0.5359840000000  0.5584830000000 1.0
C      1  0.5069880000000  0.4881090000000  0.4792550000000 1.0
C      1  0.5164290000000  0.4974470000000  0.5237290000000 1.0
C      1  0.4594580000000  0.5242650000000  0.5633090000000 1.0
C      1  0.4515680000000  0.5145870000000  0.4327410000000 1.0
C      1  0.5740870000000  0.5561940000000  0.4883940000000 1.0
C      1  0.5674580000000  0.5218250000000  0.5300840000000 1.0
C      1  0.4613940000000  0.4943570000000  0.5212460000000 1.0
C      1  0.4634540000000  0.4903450000000  0.4775190000000 1.0
C      1  0.4687000000000  0.5638730000000  0.4798360000000 1.0
C      1  0.4639600000000  0.5666120000000  0.5135720000000 1.0
C      1  0.4655370000000  0.5031890000000  0.4824320000000 1.0
C      1  0.4676010000000  0.5051770000000  0.5152480000000 1.0
C      1  0.4662350000000  0.5167940000000  0.5377970000000 1.0
C      1  0.4616940000000  0.5111440000000  0.4587460000000 1.0
C      1  0.5193770000000  0.5846000000000  0.4591760000000 1.0
C      1  0.5081140000000  0.5613520000000  0.5619640000000 1.0
C      1  0.5190840000000  0.4956150000000  0.4353940000000 1.0
C      1  0.5356030000000  0.4991720000000  0.5673710000000 1.0
C      1  0.4520820000000  0.5696010000000  0.5180540000000 1.0
C      1  0.4563950000000  0.5693700000000  0.4771830000000 1.0
C      1  0.5659500000000  0.5153420000000  0.4896480000000 1.0
C      1  0.5583120000000  0.5079570000000  0.5120620000000 1.0
C      1  0.5240140000000  0.4938440000000  0.5701700000000 1.0
C      1  0.5119570000000  0.5060700000000  0.4340680000000 1.0
C      1  0.4363010000000  0.5235450000000  0.4875690000000 1.0
C      1  0.4375610000000  0.5252470000000  0.5119440000000 1.0
C      1  0.5458530000000  0.5011180000000  0.5603100000000 1.0
C      1  0.5285480000000  0.4869900000000  0.4375840000000 1.0
C      1  0.5312550000000  0.5486190000000  0.5421400000000 1.0
C      1  0.5488880000000  0.5664000000000  0.4613810000000 1.0
C      1  0.5392120000000  0.4585270000000  0.5406710000000 1.0
C      1  0.5336660000000  0.4504800000000  0.4686960000000 1.0
C      1  0.4573520000000  0.4827500000000  0.5122290000000 1.0
C      1  0.4630870000000  0.4807840000000  0.4877290000000 1.0
C      1  0.4671120000000  0.5496820000000  0.4820930000000 1.0
C      1  0.4660730000000  0.5530350000000  0.5102690000000 1.0
C      1  0.4972830000000  0.5414490000000  0.4334690000000 1.0
C      1  0.4945290000000  0.4994660000000  0.5619380000000 1.0
C      1  0.5136700000000  0.5605750000000  0.5505000000000 1.0
C      1  0.5285920000000  0.5788050000000  0.4677310000000 1.0
C      1  0.4342900000000  0.5189730000000  0.5368530000000 1.0
C      1  0.4316910000000  0.5121050000000  0.4647060000000 1.0
C      1  0.4590780000000  0.5064250000000  0.5430870000000 1.0
C      1  0.4570620000000  0.4989840000000  0.4546040000000 1.0
C      1  0.4610320000000  0.4878200000000  0.4630620000000 1.0
C      1  0.4570100000000  0.4955210000000  0.5345590000000 1.0
C      1  0.5021690000000  0.4291440000000  0.4558920000000 1.0
C      1  0.5079050000000  0.4412630000000  0.5437590000000 1.0
C      1  0.4374200000000  0.5552170000000  0.5074220000000 1.0
C      1  0.4410590000000  0.5537470000000  0.4842480000000 1.0
C      1  0.4615210000000  0.4683980000000  0.5148490000000 1.0
C      1  0.4625000000000  0.4669430000000  0.4881780000000 1.0
C      1  0.5458450000000  0.4378000000000  0.4864580000000 1.0
C      1  0.5486030000000  0.4414300000000  0.5237960000000 1.0
C      1  0.5136360000000  0.4283990000000  0.4993210000000 1.0
C      1  0.5102980000000  0.4181940000000  0.4905960000000 1.0
C      1  0.5442070000000  0.4486660000000  0.5330160000000 1.0
C      1  0.5413860000000  0.4424960000000  0.4757730000000 1.0
C      1  0.4479620000000  0.4431350000000  0.5355200000000 1.0
C      1  0.4484540000000  0.4410580000000  0.4702390000000 1.0
C      1  0.4440450000000  0.4998330000000  0.4465240000000 1.0
C      1  0.4490930000000  0.5086630000000  0.5539560000000 1.0
C      1  0.4390740000000  0.4764220000000  0.5417580000000 1.0
C      1  0.4753160000000  0.4532550000000  0.4576080000000 1.0
C      1  0.5012390000000  0.5239520000000  0.5644150000000 1.0
C      1  0.4963540000000  0.5663920000000  0.4386070000000 1.0
C      1  0.5117590000000  0.5523900000000  0.5275240000000 1.0
C      1  0.5269350000000  0.5552890000000  0.4628740000000 1.0
C      1  0.5613490000000  0.5671360000000  0.4630070000000 1.0
C      1  0.5409460000000  0.5416540000000  0.5458780000000 1.0
C      1  0.4398080000000  0.5644010000000  0.5157690000000 1.0
C      1  0.4443210000000  0.5643390000000  0.4777710000000 1.0
C      1  0.4631550000000  0.5298700000000  0.5183080000000 1.0
C      1  0.4600040000000  0.5272850000000  0.4769960000000 1.0
C      1  0.5504570000000  0.4962290000000  0.5114440000000 1.0
C      1  0.5446940000000  0.4889100000000  0.4835360000000 1.0
C      1  0.4628960000000  0.4589560000000  0.4769120000000 1.0
C      1  0.4580040000000  0.4624410000000  0.5270810000000 1.0
C      1  0.4671640000000  0.4630130000000  0.4635650000000 1.0
C      1  0.4498280000000  0.4709990000000  0.5346480000000 1.0
C      1  0.4951680000000  0.5539560000000  0.4351120000000 1.0
C      1  0.4969540000000  0.5123920000000  0.5621660000000 1.0
C      1  0.4827840000000  0.4389630000000  0.5410120000000 1.0
C      1  0.4810500000000  0.4423090000000  0.4643850000000 1.0
C      1  0.4924330000000  0.5470540000000  0.4939240000000 1.0
C      1  0.4997800000000  0.5382530000000  0.4831880000000 1.0
C      1  0.4545510000000  0.5125450000000  0.5665540000000 1.0
C      1  0.4459870000000  0.5027630000000  0.4327990000000 1.0
C      1  0.5730940000000  0.5660360000000  0.4683240000000 1.0
C      1  0.5515500000000  0.5340350000000  0.5455730000000 1.0
C      1  0.4788740000000  0.4273850000000  0.5074070000000 1.0
C      1  0.4766260000000  0.4321520000000  0.4876030000000 1.0
C      1  0.4521430000000  0.5270920000000  0.5086360000000 1.0
C      1  0.4512170000000  0.5255590000000  0.4889800000000 1.0
C      1  0.5689660000000  0.5159380000000  0.5178640000000 1.0
C      1  0.5667220000000  0.5281360000000  0.4966870000000 1.0
C      1  0.5333200000000  0.4697510000000  0.5424100000000 1.0
C      1  0.5249040000000  0.4594750000000  0.4656570000000 1.0
C      1  0.5607110000000  0.4936030000000  0.5416480000000 1.0
C      1  0.5493900000000  0.4778500000000  0.4490500000000 1.0
C      1  0.5194180000000  0.5551300000000  0.5390260000000 1.0
C      1  0.5354390000000  0.5663140000000  0.4627320000000 1.0
C      1  0.5218520000000  0.4907580000000  0.5333800000000 1.0
C      1  0.5098180000000  0.4797070000000  0.4702370000000 1.0
C      1  0.5388740000000  0.4810070000000  0.4418380000000 1.0
C      1  0.5550280000000  0.4995710000000  0.5516780000000 1.0
C      1  0.4368860000000  0.4464080000000  0.4683630000000 1.0
C      1  0.4358300000000  0.4396310000000  0.5352470000000 1.0
C      1  0.5166810000000  0.4694720000000  0.4657320000000 1.0
C      1  0.5276900000000  0.4812330000000  0.5399920000000 1.0
C      1  0.4319290000000  0.5181650000000  0.4760570000000 1.0
C      1  0.4335620000000  0.5231210000000  0.5246580000000 1.0
C      1  0.5009590000000  0.5291300000000  0.4328960000000 1.0
C      1  0.4954290000000  0.4866290000000  0.5615400000000 1.0
C      1  0.5058210000000  0.5173260000000  0.4331530000000 1.0
C      1  0.5166660000000  0.4840470000000  0.5745360000000 1.0
C      1  0.5062180000000  0.5469460000000  0.5026990000000 1.0
C      1  0.5124250000000  0.5436730000000  0.4801950000000 1.0
C      1  0.5235600000000  0.5778640000000  0.4809080000000 1.0
C      1  0.5200660000000  0.5773480000000  0.5030370000000 1.0
C      1  0.4375910000000  0.5139230000000  0.5482400000000 1.0
C      1  0.4339120000000  0.5054890000000  0.4539190000000 1.0
C      1  0.4679230000000  0.5174270000000  0.5236620000000 1.0
C      1  0.4636970000000  0.5139520000000  0.4723620000000 1.0
C      1  0.4293690000000  0.4568400000000  0.4703900000000 1.0
C      1  0.4229750000000  0.4375900000000  0.5357400000000 1.0
C      1  0.4727790000000  0.4376130000000  0.4756330000000 1.0
C      1  0.4717870000000  0.4431620000000  0.5371730000000 1.0
C      1  0.4497400000000  0.4843880000000  0.5387420000000 1.0
C      1  0.4623240000000  0.4750260000000  0.4590020000000 1.0
C      1  0.5184470000000  0.5480740000000  0.4687980000000 1.0
C      1  0.5076570000000  0.5492090000000  0.5162710000000 1.0
C      1  0.5568900000000  0.4762050000000  0.4588330000000 1.0
C      1  0.5643540000000  0.4884540000000  0.5308530000000 1.0
C      1  0.5759340000000  0.4608100000000  0.4867980000000 1.0
C      1  0.5713650000000  0.4605400000000  0.5075790000000 1.0
C      1  0.5089930000000  0.5832590000000  0.4521930000000 1.0
C      1  0.5058330000000  0.5489580000000  0.5665650000000 1.0
C      1  0.5009050000000  0.5771610000000  0.4436810000000 1.0
C      1  0.5046150000000  0.5365310000000  0.5655460000000 1.0
C      1  0.5814090000000  0.4832570000000  0.4956600000000 1.0
C      1  0.4888040000000  0.5179220000000  0.4925140000000 1.0
C      1  0.5231560000000  0.4697980000000  0.5002080000000 1.0
C      1  0.5022140000000  0.4873500000000  0.5052060000000 1.0
C      1  0.5389710000000  0.5001770000000  0.5027200000000 1.0
C      1  0.4536570000000  0.5131450000000  0.4992480000000 1.0
C      1  0.5164130000000  0.4419710000000  0.5016550000000 1.0
C      1  0.4557290000000  0.4355390000000  0.5009610000000 1.0
C      1  0.4841780000000  0.5825660000000  0.4861130000000 1.0
C      1  0.4998040000000  0.4735000000000  0.5062890000000 1.0
C      1  0.4915390000000  0.4483900000000  0.5007000000000 1.0
C      1  0.4653140000000  0.4598640000000  0.5021300000000 1.0
C      1  0.4427450000000  0.4818820000000  0.5086730000000 1.0
C      1  0.4405020000000  0.4551480000000  0.5039330000000 1.0
C      1  0.5567620000000  0.4757620000000  0.4966470000000 1.0
C      1  0.5190110000000  0.5434600000000  0.4943390000000 1.0
C      1  0.5432670000000  0.5379480000000  0.4968100000000 1.0
C      1  0.4776150000000  0.5256630000000  0.4946320000000 1.0
C      1  0.5386410000000  0.5623200000000  0.4953840000000 1.0
C      1  0.5098420000000  0.4645490000000  0.5034420000000 1.0
C      1  0.5341400000000  0.4124630000000  0.5019710000000 1.0
C      1  0.5292820000000  0.5737340000000  0.4937610000000 1.0
C      1  0.4404850000000  0.5066780000000  0.5013660000000 1.0
C      1  0.5416840000000  0.4225870000000  0.5032210000000 1.0
C      1  0.5720820000000  0.4718780000000  0.4964860000000 1.0
C      1  0.5522970000000  0.5630540000000  0.4944500000000 1.0
C      1  0.5775000000000  0.4509090000000  0.4974250000000 1.0
C      1  0.4321820000000  0.5187770000000  0.5004930000000 1.0
C      1  0.5237720000000  0.4830090000000  0.4956460000000 1.0
C      1  0.5003120000000  0.5252110000000  0.4882160000000 1.0
C      1  0.4811820000000  0.5693210000000  0.4848310000000 1.0
C      1  0.5650380000000  0.4323860000000  0.5054930000000 1.0
C      1  0.5575910000000  0.5393730000000  0.4965390000000 1.0
C      1  0.5040560000000  0.5676380000000  0.4920300000000 1.0
C      1  0.4808990000000  0.4585080000000  0.5029960000000 1.0
C      1  0.5619600000000  0.5532470000000  0.4942840000000 1.0
C      1  0.4085470000000  0.4906790000000  0.5010330000000 1.0
C      1  0.4657920000000  0.5456930000000  0.4970420000000 1.0
C      1  0.5120780000000  0.5194920000000  0.4937960000000 1.0
C      1  0.5420630000000  0.4373850000000  0.5003920000000 1.0
C      1  0.5481210000000  0.4636360000000  0.5005600000000 1.0
C      1  0.4175420000000  0.4548690000000  0.5047710000000 1.0
C      1  0.4217470000000  0.4685730000000  0.5069620000000 1.0
C      1  0.4415740000000  0.5475960000000  0.4965630000000 1.0
C      1  0.5776530000000  0.5086850000000  0.4967280000000 1.0
C      1  0.4362170000000  0.4692260000000  0.5069470000000 1.0
C      1  0.5222150000000  0.5284870000000  0.4962230000000 1.0
C      1  0.4868890000000  0.4351550000000  0.4975740000000 1.0
C      1  0.4147660000000  0.4802030000000  0.5082020000000 1.0
C      1  0.5413650000000  0.5131400000000  0.4974430000000 1.0
C      1  0.4652110000000  0.5036890000000  0.4985100000000 1.0
C      1  0.4673250000000  0.4289630000000  0.4987470000000 1.0
C      1  0.4528010000000  0.5374600000000  0.4979590000000 1.0
C      1  0.4795440000000  0.4844810000000  0.5026960000000 1.0
C      1  0.4916200000000  0.5614520000000  0.4904420000000 1.0
C      1  0.5338000000000  0.5487230000000  0.4962190000000 1.0
C      1  0.4897040000000  0.4936250000000  0.5016990000000 1.0
C      1  0.4790590000000  0.5391260000000  0.4959210000000 1.0
C      1  0.5352990000000  0.4902990000000  0.4933770000000 1.0
C      1  0.5089800000000  0.5058670000000  0.4985170000000 1.0
C      1  0.4533410000000  0.4487520000000  0.5024480000000 1.0
C      1  0.5748550000000  0.4371460000000  0.4987930000000 1.0
C      1  0.4358790000000  0.4938800000000  0.5049410000000 1.0
C      1  0.5030730000000  0.5875230000000  0.4910750000000 1.0
C      1  0.5819440000000  0.4959100000000  0.4954200000000 1.0
C      1  0.4860420000000  0.4715660000000  0.5043570000000 1.0
C      1  0.4219820000000  0.4921020000000  0.5048440000000 1.0
C      1  0.5340210000000  0.4604970000000  0.5010330000000 1.0
C      1  0.4278870000000  0.4474320000000  0.5023080000000 1.0
C      1  0.4904430000000  0.5936170000000  0.4880970000000 1.0
C      1  0.5534860000000  0.4415120000000  0.5097830000000 1.0
C      1  0.5574790000000  0.4551960000000  0.5055450000000 1.0
C      1  0.5765570000000  0.5199850000000  0.5062090000000 1.0
C      1  0.5054850000000  0.4512170000000  0.5019430000000 1.0
C      1  0.5552860000000  0.5123370000000  0.4983670000000 1.0
C      1  0.5300310000000  0.4465380000000  0.5019060000000 1.0
C      1  0.5211990000000  0.4161110000000  0.4988600000000 1.0
C      1  0.5357060000000  0.5256070000000  0.4971780000000 1.0
C      1  0.4938880000000  0.5057790000000  0.4969410000000 1.0
C      1  0.4654930000000  0.4879070000000  0.5003310000000 1.0
END
