TITL C-3052148-2842-50 -3.5434557220185 1000000 -3718.4304945157 0 0 520 (C1) n - 1
REM
REM in /scratch/bkarasulu/Only-C240
REM
REM
REM
REM
REM
REM ./C.cell (db1db5b03a21c153a00b653f6831bbfd)
REM
REM compiler GCC version 9.2.1 20190827 (Red Hat 9.2.1-1)
REM options -cpp -mtune=generic -march=x86-64 -g -O0 -fpre-include=/usr/include/finclude/math-vector-fortran.h
REM seed -775546222 715978758 -666047887 1684316108 449601900 612548128 -2048403466 -48118760 -2004513081 -78584056 -80502470 1419740535 1026492768 304664241 396947425 -784727083 1828975854 1120634544 -896696575 -347264033 1916672428 -1957336091 642471043 690947810 -1032229752 -326457513 -397135132 -1478151016 2112617026 -731430424 408686719 542221640 -830863302
REM
CELL 1.54180  100.00000  100.00000  100.00000   90.00000   90.00000   90.00000
LATT -1
SFAC C  
C      1  0.5758400000000  0.4841680000000  0.5274810000000 1.0
C      1  0.4383770000000  0.4839340000000  0.5533090000000 1.0
C      1  0.4857660000000  0.4841130000000  0.4213050000000 1.0
C      1  0.5710130000000  0.5483980000000  0.5072950000000 1.0
C      1  0.4595830000000  0.5422480000000  0.5500940000000 1.0
C      1  0.4701820000000  0.5490210000000  0.4353360000000 1.0
C      1  0.5572730000000  0.4934050000000  0.5517850000000 1.0
C      1  0.4302620000000  0.4954380000000  0.5252500000000 1.0
C      1  0.5158890000000  0.4935850000000  0.4256790000000 1.0
C      1  0.4996160000000  0.4833100000000  0.5409920000000 1.0
C      1  0.4639950000000  0.4831670000000  0.4795250000000 1.0
C      1  0.5350110000000  0.4834510000000  0.4797390000000 1.0
C      1  0.4343700000000  0.5447500000000  0.5290760000000 1.0
C      1  0.5064130000000  0.5430260000000  0.4291430000000 1.0
C      1  0.5575600000000  0.5428380000000  0.5422830000000 1.0
C      1  0.5350900000000  0.5222140000000  0.4291430000000 1.0
C      1  0.5430290000000  0.5215400000000  0.5676150000000 1.0
C      1  0.4220130000000  0.5226160000000  0.5058450000000 1.0
C      1  0.4283190000000  0.5457970000000  0.4910220000000 1.0
C      1  0.5432090000000  0.5454210000000  0.4427180000000 1.0
C      1  0.5267250000000  0.5445790000000  0.5667450000000 1.0
C      1  0.5067620000000  0.5152770000000  0.5782980000000 1.0
C      1  0.4262380000000  0.5179680000000  0.4652410000000 1.0
C      1  0.5668040000000  0.5175270000000  0.4541570000000 1.0
C      1  0.4602590000000  0.5275530000000  0.4302330000000 1.0
C      1  0.5822270000000  0.5278980000000  0.4998000000000 1.0
C      1  0.4589560000000  0.5246550000000  0.5673520000000 1.0
C      1  0.5168060000000  0.4787350000000  0.4259480000000 1.0
C      1  0.5569870000000  0.4788990000000  0.5526340000000 1.0
C      1  0.4286050000000  0.4804610000000  0.5235690000000 1.0
C      1  0.4362130000000  0.4711120000000  0.5461290000000 1.0
C      1  0.4925240000000  0.4710710000000  0.4218630000000 1.0
C      1  0.5719360000000  0.4711620000000  0.5331160000000 1.0
C      1  0.4923340000000  0.4765600000000  0.5786730000000 1.0
C      1  0.4357030000000  0.4784680000000  0.4543700000000 1.0
C      1  0.5714630000000  0.4780660000000  0.4681960000000 1.0
C      1  0.5503490000000  0.5098990000000  0.4404270000000 1.0
C      1  0.5293790000000  0.5108080000000  0.5829710000000 1.0
C      1  0.4228570000000  0.5105700000000  0.4867400000000 1.0
C      1  0.4841190000000  0.5347070000000  0.4242860000000 1.0
C      1  0.5793750000000  0.5427480000000  0.5321730000000 1.0
C      1  0.4333650000000  0.5405990000000  0.5515340000000 1.0
C      1  0.4538000000000  0.4516080000000  0.4623240000000 1.0
C      1  0.5523770000000  0.4514710000000  0.4799780000000 1.0
C      1  0.4915610000000  0.4510270000000  0.5556230000000 1.0
C      1  0.4390260000000  0.5492780000000  0.5417220000000 1.0
C      1  0.4921760000000  0.5456450000000  0.4291180000000 1.0
C      1  0.5661170000000  0.5475480000000  0.5314650000000 1.0
C      1  0.5169860000000  0.5249520000000  0.4509300000000 1.0
C      1  0.5344140000000  0.5260500000000  0.5397980000000 1.0
C      1  0.4500500000000  0.5260050000000  0.5107520000000 1.0
C      1  0.4958770000000  0.5119830000000  0.5678590000000 1.0
C      1  0.4405200000000  0.5151250000000  0.4598770000000 1.0
C      1  0.5640800000000  0.5146550000000  0.4690870000000 1.0
C      1  0.4588060000000  0.5339870000000  0.5215180000000 1.0
C      1  0.5031610000000  0.5308800000000  0.4535900000000 1.0
C      1  0.5394090000000  0.5317410000000  0.5265260000000 1.0
C      1  0.5020410000000  0.4186130000000  0.5184580000000 1.0
C      1  0.4830030000000  0.4184140000000  0.4923220000000 1.0
C      1  0.5149170000000  0.4189320000000  0.4895530000000 1.0
C      1  0.5009130000000  0.4879680000000  0.5781330000000 1.0
C      1  0.4311590000000  0.4902260000000  0.4611730000000 1.0
C      1  0.5676700000000  0.4896810000000  0.4607650000000 1.0
C      1  0.4876030000000  0.4674040000000  0.5285980000000 1.0
C      1  0.4797500000000  0.4672200000000  0.4731890000000 1.0
C      1  0.5323440000000  0.4681930000000  0.4968130000000 1.0
C      1  0.5080210000000  0.4544870000000  0.4717460000000 1.0
C      1  0.5214700000000  0.4550790000000  0.5227220000000 1.0
C      1  0.4707910000000  0.4546330000000  0.5068210000000 1.0
C      1  0.5068470000000  0.4552900000000  0.5731480000000 1.0
C      1  0.4330310000000  0.4568430000000  0.4703450000000 1.0
C      1  0.5598580000000  0.4562030000000  0.4582310000000 1.0
C      1  0.4852420000000  0.4743850000000  0.5068560000000 1.0
C      1  0.4996600000000  0.4741700000000  0.4832690000000 1.0
C      1  0.5158430000000  0.4761910000000  0.5106840000000 1.0
C      1  0.4813940000000  0.4587030000000  0.4854740000000 1.0
C      1  0.5197050000000  0.4601700000000  0.4932580000000 1.0
C      1  0.4972730000000  0.4591250000000  0.5202850000000 1.0
C      1  0.5192260000000  0.4830480000000  0.5563660000000 1.0
C      1  0.4415380000000  0.4820970000000  0.4907290000000 1.0
C      1  0.5373130000000  0.4812430000000  0.4547740000000 1.0
C      1  0.5433320000000  0.4621530000000  0.4782480000000 1.0
C      1  0.4973020000000  0.4615120000000  0.5484090000000 1.0
C      1  0.4575440000000  0.4621200000000  0.4727100000000 1.0
C      1  0.5105070000000  0.4661660000000  0.5026190000000 1.0
C      1  0.4966210000000  0.4639140000000  0.5054930000000 1.0
C      1  0.4934550000000  0.4633490000000  0.4913610000000 1.0
C      1  0.5525000000000  0.4582140000000  0.5036720000000 1.0
C      1  0.4710750000000  0.4575130000000  0.5431380000000 1.0
C      1  0.4771040000000  0.4578970000000  0.4523360000000 1.0
C      1  0.4572510000000  0.4656720000000  0.4310020000000 1.0
C      1  0.5808500000000  0.4655870000000  0.4979620000000 1.0
C      1  0.4617170000000  0.4640330000000  0.5714220000000 1.0
C      1  0.4672440000000  0.5114630000000  0.4411880000000 1.0
C      1  0.5677080000000  0.5116500000000  0.5015210000000 1.0
C      1  0.4653670000000  0.5080920000000  0.5573810000000 1.0
C      1  0.5455000000000  0.5016660000000  0.4292950000000 1.0
C      1  0.5399050000000  0.5019050000000  0.5798160000000 1.0
C      1  0.4154410000000  0.5027660000000  0.4966360000000 1.0
C      1  0.4480080000000  0.4454840000000  0.5054860000000 1.0
C      1  0.5209120000000  0.4451470000000  0.4530950000000 1.0
C      1  0.5306510000000  0.4457790000000  0.5441520000000 1.0
C      1  0.5576100000000  0.5018790000000  0.5218100000000 1.0
C      1  0.4614140000000  0.5066170000000  0.5345700000000 1.0
C      1  0.4900370000000  0.5019150000000  0.4401800000000 1.0
C      1  0.4842850000000  0.4466590000000  0.4766420000000 1.0
C      1  0.5268210000000  0.4476860000000  0.4990260000000 1.0
C      1  0.4881930000000  0.4471320000000  0.5237250000000 1.0
C      1  0.4526640000000  0.5666010000000  0.5040670000000 1.0
C      1  0.5189350000000  0.5653360000000  0.4570720000000 1.0
C      1  0.5275110000000  0.5656120000000  0.5388060000000 1.0
C      1  0.5688240000000  0.5461850000000  0.4689380000000 1.0
C      1  0.4909840000000  0.5438000000000  0.5729310000000 1.0
C      1  0.4379450000000  0.5464680000000  0.4554910000000 1.0
C      1  0.4771700000000  0.5042240000000  0.4487490000000 1.0
C      1  0.5562530000000  0.5044960000000  0.5064640000000 1.0
C      1  0.4657220000000  0.4996890000000  0.5464840000000 1.0
C      1  0.4914040000000  0.5102380000000  0.4703100000000 1.0
C      1  0.5310140000000  0.5103140000000  0.5084170000000 1.0
C      1  0.4802250000000  0.5099960000000  0.5188390000000 1.0
C      1  0.4865290000000  0.4479870000000  0.4290180000000 1.0
C      1  0.5683970000000  0.4481560000000  0.5241710000000 1.0
C      1  0.4453620000000  0.4478220000000  0.5469990000000 1.0
C      1  0.4668850000000  0.4727490000000  0.4690640000000 1.0
C      1  0.5423070000000  0.4732160000000  0.4876480000000 1.0
C      1  0.4898670000000  0.4721930000000  0.5423020000000 1.0
C      1  0.4390130000000  0.5283860000000  0.5512620000000 1.0
C      1  0.4894290000000  0.5216900000000  0.4240770000000 1.0
C      1  0.5857410000000  0.5374350000000  0.5226690000000 1.0
C      1  0.4621760000000  0.5311360000000  0.5366150000000 1.0
C      1  0.4917150000000  0.5239060000000  0.4489090000000 1.0
C      1  0.5495750000000  0.5243020000000  0.5195550000000 1.0
C      1  0.5178880000000  0.5721940000000  0.4836050000000 1.0
C      1  0.5051470000000  0.5726250000000  0.5239860000000 1.0
C      1  0.4762770000000  0.5730030000000  0.4920470000000 1.0
C      1  0.5397670000000  0.5732090000000  0.4929290000000 1.0
C      1  0.4857180000000  0.5731550000000  0.5378320000000 1.0
C      1  0.4732040000000  0.5738300000000  0.4686670000000 1.0
C      1  0.4582690000000  0.5557620000000  0.4957120000000 1.0
C      1  0.5239210000000  0.5547830000000  0.4661370000000 1.0
C      1  0.5170540000000  0.5552300000000  0.5378360000000 1.0
C      1  0.5529220000000  0.5348890000000  0.4405000000000 1.0
C      1  0.5239500000000  0.5342380000000  0.5763290000000 1.0
C      1  0.4214620000000  0.5352140000000  0.4841620000000 1.0
C      1  0.4758130000000  0.4659440000000  0.4975960000000 1.0
C      1  0.5127680000000  0.4659490000000  0.4812320000000 1.0
C      1  0.5109060000000  0.4662490000000  0.5222900000000 1.0
C      1  0.4986370000000  0.4286230000000  0.4721710000000 1.0
C      1  0.5246960000000  0.4291010000000  0.5133400000000 1.0
C      1  0.4765250000000  0.4288560000000  0.5146470000000 1.0
C      1  0.5451110000000  0.4698530000000  0.5242050000000 1.0
C      1  0.4578330000000  0.4704560000000  0.5267900000000 1.0
C      1  0.4977860000000  0.4703530000000  0.4500510000000 1.0
C      1  0.4800580000000  0.4433170000000  0.5120120000000 1.0
C      1  0.4987410000000  0.4430600000000  0.4765410000000 1.0
C      1  0.5208460000000  0.4437190000000  0.5119550000000 1.0
C      1  0.5733010000000  0.5429380000000  0.4825150000000 1.0
C      1  0.4775650000000  0.5402060000000  0.5687900000000 1.0
C      1  0.4474810000000  0.5431680000000  0.4448550000000 1.0
C      1  0.5292400000000  0.4632490000000  0.4409570000000 1.0
C      1  0.5418890000000  0.4608020000000  0.5589200000000 1.0
C      1  0.4339990000000  0.4643340000000  0.5050230000000 1.0
C      1  0.4778780000000  0.4913890000000  0.5475950000000 1.0
C      1  0.4690360000000  0.4933060000000  0.4567220000000 1.0
C      1  0.5529200000000  0.4935310000000  0.4955200000000 1.0
C      1  0.5535750000000  0.4459250000000  0.4667850000000 1.0
C      1  0.5023670000000  0.4452830000000  0.5633860000000 1.0
C      1  0.4434070000000  0.4458020000000  0.4712470000000 1.0
C      1  0.5182610000000  0.4952210000000  0.5223870000000 1.0
C      1  0.4729810000000  0.4946970000000  0.5030130000000 1.0
C      1  0.5096150000000  0.4947620000000  0.4745840000000 1.0
C      1  0.5058210000000  0.4693720000000  0.4265150000000 1.0
C      1  0.5614620000000  0.4695470000000  0.5425910000000 1.0
C      1  0.4338740000000  0.4702000000000  0.5323120000000 1.0
C      1  0.4599750000000  0.5645840000000  0.5372380000000 1.0
C      1  0.4861650000000  0.5646560000000  0.4469010000000 1.0
C      1  0.5525920000000  0.5639980000000  0.5152570000000 1.0
C      1  0.5707710000000  0.5381110000000  0.4584830000000 1.0
C      1  0.4984130000000  0.5347880000000  0.5792920000000 1.0
C      1  0.4278430000000  0.5389650000000  0.4598870000000 1.0
C      1  0.5743620000000  0.4555910000000  0.4895690000000 1.0
C      1  0.4723270000000  0.4542160000000  0.5697310000000 1.0
C      1  0.4542910000000  0.4558440000000  0.4409360000000 1.0
C      1  0.5540300000000  0.4709770000000  0.5102670000000 1.0
C      1  0.4645230000000  0.4701140000000  0.5409740000000 1.0
C      1  0.4816770000000  0.4711130000000  0.4486230000000 1.0
C      1  0.4593120000000  0.5440230000000  0.4748220000000 1.0
C      1  0.5413620000000  0.5432380000000  0.4776730000000 1.0
C      1  0.4979410000000  0.5424710000000  0.5459660000000 1.0
C      1  0.5249510000000  0.5090910000000  0.5232450000000 1.0
C      1  0.4696500000000  0.5090860000000  0.5072060000000 1.0
C      1  0.5074310000000  0.5090440000000  0.4693020000000 1.0
C      1  0.5822790000000  0.4812580000000  0.5149510000000 1.0
C      1  0.4462820000000  0.4800870000000  0.5649950000000 1.0
C      1  0.4716390000000  0.4812480000000  0.4217440000000 1.0
C      1  0.5186970000000  0.5456340000000  0.5250260000000 1.0
C      1  0.4691860000000  0.5460620000000  0.5022860000000 1.0
C      1  0.5126760000000  0.5447300000000  0.4717590000000 1.0
C      1  0.4490290000000  0.4369330000000  0.4805480000000 1.0
C      1  0.5420830000000  0.4376360000000  0.4667420000000 1.0
C      1  0.5081270000000  0.4371500000000  0.5534720000000 1.0
C      1  0.5305240000000  0.5437390000000  0.5055280000000 1.0
C      1  0.4810330000000  0.5446680000000  0.5219210000000 1.0
C      1  0.4896110000000  0.5442740000000  0.4704040000000 1.0
C      1  0.5297880000000  0.5381480000000  0.4839560000000 1.0
C      1  0.4989420000000  0.5376810000000  0.5327820000000 1.0
C      1  0.4705600000000  0.5390630000000  0.4817040000000 1.0
C      1  0.5486280000000  0.5201870000000  0.4735520000000 1.0
C      1  0.4984070000000  0.5185300000000  0.5524960000000 1.0
C      1  0.4520750000000  0.5207640000000  0.4709490000000 1.0
C      1  0.5462900000000  0.5505800000000  0.4558000000000 1.0
C      1  0.5140030000000  0.5497730000000  0.5621800000000 1.0
C      1  0.4379090000000  0.5511720000000  0.4817030000000 1.0
C      1  0.5009130000000  0.5599490000000  0.5156820000000 1.0
C      1  0.4858160000000  0.5602330000000  0.4911440000000 1.0
C      1  0.5137950000000  0.5591020000000  0.4914250000000 1.0
C      1  0.4521170000000  0.4789950000000  0.4336630000000 1.0
C      1  0.5809920000000  0.4787780000000  0.4922940000000 1.0
C      1  0.4665970000000  0.4769650000000  0.5748520000000 1.0
C      1  0.5076410000000  0.5662710000000  0.5367330000000 1.0
C      1  0.4635790000000  0.5671780000000  0.4882640000000 1.0
C      1  0.5275930000000  0.5661390000000  0.4746930000000 1.0
C      1  0.5574450000000  0.5590950000000  0.4911680000000 1.0
C      1  0.4779620000000  0.5575290000000  0.5525020000000 1.0
C      1  0.4625760000000  0.5599660000000  0.4541540000000 1.0
C      1  0.5328390000000  0.5235630000000  0.5770890000000 1.0
C      1  0.4197550000000  0.5240770000000  0.4920200000000 1.0
C      1  0.5477210000000  0.5235000000000  0.4348660000000 1.0
C      1  0.4758360000000  0.4773480000000  0.5453290000000 1.0
C      1  0.4719160000000  0.4789380000000  0.4556130000000 1.0
C      1  0.5519190000000  0.4791730000000  0.4986910000000 1.0
C      1  0.4424560000000  0.5000880000000  0.4625880000000 1.0
C      1  0.5606920000000  0.4996330000000  0.4696130000000 1.0
C      1  0.4967680000000  0.4958730000000  0.5659110000000 1.0
C      1  0.5339490000000  0.5085370000000  0.4254090000000 1.0
C      1  0.5468600000000  0.5078890000000  0.5688820000000 1.0
C      1  0.4193410000000  0.5088380000000  0.5087530000000 1.0
C      1  0.5460560000000  0.5164190000000  0.5069050000000 1.0
C      1  0.4743550000000  0.5135050000000  0.5314230000000 1.0
C      1  0.4826380000000  0.5160860000000  0.4575700000000 1.0
C      1  0.5816470000000  0.4672070000000  0.5123200000000 1.0
C      1  0.4489180000000  0.4660290000000  0.5649620000000 1.0
C      1  0.4695940000000  0.4672390000000  0.4235560000000 1.0
C      1  0.5842330000000  0.5020730000000  0.4990100000000 1.0
C      1  0.4598940000000  0.5001090000000  0.5745830000000 1.0
C      1  0.4567330000000  0.5020840000000  0.4276820000000 1.0
C      1  0.5561040000000  0.4469810000000  0.5316070000000 1.0
C      1  0.4455240000000  0.4471780000000  0.5326180000000 1.0
C      1  0.4989090000000  0.4469320000000  0.4363270000000 1.0
C      1  0.4332480000000  0.5039280000000  0.5373650000000 1.0
C      1  0.5046950000000  0.5022240000000  0.4224900000000 1.0
C      1  0.5648860000000  0.5020340000000  0.5432210000000 1.0
C      1  0.4490540000000  0.4353120000000  0.4957530000000 1.0
C      1  0.5292760000000  0.4352510000000  0.4585350000000 1.0
C      1  0.5217120000000  0.4352360000000  0.5467700000000 1.0
C      1  0.4926030000000  0.4096480000000  0.4971040000000 1.0
C      1  0.5062880000000  0.4097010000000  0.4952100000000 1.0
C      1  0.5010960000000  0.4096000000000  0.5080310000000 1.0
C      1  0.5136140000000  0.5454440000000  0.5484110000000 1.0
C      1  0.4502710000000  0.5464470000000  0.4875660000000 1.0
C      1  0.5350510000000  0.5454850000000  0.4634280000000 1.0
C      1  0.5327420000000  0.5020230000000  0.5483430000000 1.0
C      1  0.4433460000000  0.5031480000000  0.5030190000000 1.0
C      1  0.5261070000000  0.5020440000000  0.4492320000000 1.0
C      1  0.4612510000000  0.5076550000000  0.4755700000000 1.0
C      1  0.5395680000000  0.5075810000000  0.4791160000000 1.0
C      1  0.4983260000000  0.5075380000000  0.5397100000000 1.0
C      1  0.4786510000000  0.4732640000000  0.5194950000000 1.0
C      1  0.4924080000000  0.4733750000000  0.4708490000000 1.0
C      1  0.5299260000000  0.4742550000000  0.5094970000000 1.0
C      1  0.4732910000000  0.5196640000000  0.4969630000000 1.0
C      1  0.5141480000000  0.5189650000000  0.4794690000000 1.0
C      1  0.5141220000000  0.5191850000000  0.5243070000000 1.0
C      1  0.5688010000000  0.4961770000000  0.5304740000000 1.0
C      1  0.4355830000000  0.4964530000000  0.5483320000000 1.0
C      1  0.4918640000000  0.4962430000000  0.4258360000000 1.0
C      1  0.5615850000000  0.5166110000000  0.5406250000000 1.0
C      1  0.4383690000000  0.5199970000000  0.5373670000000 1.0
C      1  0.5032980000000  0.5174660000000  0.4243910000000 1.0
C      1  0.5355730000000  0.5080480000000  0.5344250000000 1.0
C      1  0.4544220000000  0.5098550000000  0.5112020000000 1.0
C      1  0.5130340000000  0.5088950000000  0.4539470000000 1.0
C      1  0.4230130000000  0.5313010000000  0.4697540000000 1.0
C      1  0.5644780000000  0.5308900000000  0.4491340000000 1.0
C      1  0.5104680000000  0.5290950000000  0.5796600000000 1.0
C      1  0.5115990000000  0.5297610000000  0.4266100000000 1.0
C      1  0.5572230000000  0.5289840000000  0.5473120000000 1.0
C      1  0.4327690000000  0.5307740000000  0.5274010000000 1.0
C      1  0.4864910000000  0.4973440000000  0.4758490000000 1.0
C      1  0.5279900000000  0.4976500000000  0.5012540000000 1.0
C      1  0.4858400000000  0.4964810000000  0.5215080000000 1.0
C      1  0.4744930000000  0.5791060000000  0.5063700000000 1.0
C      1  0.5064230000000  0.5784070000000  0.4748030000000 1.0
C      1  0.5187850000000  0.5788020000000  0.5189590000000 1.0
C      1  0.5811690000000  0.5148240000000  0.5058480000000 1.0
C      1  0.4548330000000  0.5112130000000  0.5670530000000 1.0
C      1  0.4647890000000  0.5142920000000  0.4272670000000 1.0
C      1  0.5635600000000  0.5070070000000  0.4456000000000 1.0
C      1  0.5159970000000  0.5058910000000  0.5831430000000 1.0
C      1  0.4206210000000  0.5075740000000  0.4726860000000 1.0
C      1  0.5509440000000  0.4356570000000  0.5235700000000 1.0
C      1  0.4546810000000  0.4355400000000  0.5321320000000 1.0
C      1  0.4947050000000  0.4352380000000  0.4443470000000 1.0
C      1  0.4878260000000  0.5218070000000  0.4941120000000 1.0
C      1  0.5098970000000  0.5205830000000  0.4948500000000 1.0
C      1  0.4983220000000  0.5227300000000  0.5027540000000 1.0
C      1  0.5291430000000  0.5436110000000  0.4376480000000 1.0
C      1  0.5387360000000  0.5431840000000  0.5577840000000 1.0
C      1  0.4312550000000  0.5439920000000  0.5055500000000 1.0
C      1  0.5185920000000  0.4689340000000  0.5575610000000 1.0
C      1  0.4399110000000  0.4673010000000  0.4915190000000 1.0
C      1  0.5375820000000  0.4665670000000  0.4531270000000 1.0
C      1  0.4613980000000  0.4849270000000  0.5044330000000 1.0
C      1  0.5149290000000  0.4846880000000  0.4644830000000 1.0
C      1  0.5241600000000  0.4846490000000  0.5324080000000 1.0
C      1  0.4816480000000  0.4376640000000  0.4381810000000 1.0
C      1  0.5625960000000  0.4382630000000  0.5150540000000 1.0
C      1  0.4560410000000  0.4378320000000  0.5464830000000 1.0
C      1  0.5271010000000  0.5128300000000  0.4841470000000 1.0
C      1  0.5016380000000  0.5133910000000  0.5263090000000 1.0
C      1  0.4712510000000  0.5135140000000  0.4835650000000 1.0
C      1  0.5212370000000  0.4518100000000  0.4656400000000 1.0
C      1  0.5204910000000  0.4527800000000  0.5374430000000 1.0
C      1  0.4586340000000  0.4518490000000  0.4986370000000 1.0
C      1  0.5148190000000  0.4272630000000  0.5364170000000 1.0
C      1  0.4612200000000  0.4271290000000  0.4943780000000 1.0
C      1  0.5241130000000  0.4272640000000  0.4697340000000 1.0
C      1  0.4547710000000  0.4629350000000  0.4885550000000 1.0
C      1  0.5317370000000  0.4629550000000  0.4674420000000 1.0
C      1  0.5123840000000  0.4634600000000  0.5451760000000 1.0
C      1  0.5153950000000  0.4230520000000  0.5232200000000 1.0
C      1  0.4723670000000  0.4229370000000  0.5015190000000 1.0
C      1  0.5122490000000  0.4231790000000  0.4755940000000 1.0
C      1  0.4978370000000  0.4621500000000  0.4628640000000 1.0
C      1  0.5339050000000  0.4623810000000  0.5175830000000 1.0
C      1  0.4687810000000  0.4622760000000  0.5199410000000 1.0
C      1  0.4170550000000  0.4773100000000  0.4991010000000 1.0
C      1  0.5432800000000  0.4760650000000  0.4293850000000 1.0
C      1  0.5403500000000  0.4758400000000  0.5742060000000 1.0
C      1  0.5462110000000  0.5507150000000  0.5475930000000 1.0
C      1  0.4356310000000  0.5522430000000  0.5164810000000 1.0
C      1  0.5167390000000  0.5511590000000  0.4361240000000 1.0
C      1  0.4776410000000  0.4560510000000  0.5303710000000 1.0
C      1  0.4844020000000  0.4558790000000  0.4643830000000 1.0
C      1  0.5381300000000  0.4566400000000  0.5045450000000 1.0
C      1  0.5255870000000  0.5007180000000  0.4333450000000 1.0
C      1  0.5459750000000  0.5008250000000  0.5566090000000 1.0
C      1  0.4309600000000  0.5023670000000  0.5129260000000 1.0
C      1  0.5096630000000  0.5016240000000  0.5464380000000 1.0
C      1  0.4476650000000  0.5005140000000  0.4774610000000 1.0
C      1  0.5452750000000  0.5000870000000  0.4665090000000 1.0
C      1  0.5480730000000  0.4722750000000  0.5625740000000 1.0
C      1  0.4254150000000  0.4743310000000  0.5102630000000 1.0
C      1  0.5295430000000  0.4726440000000  0.4304780000000 1.0
C      1  0.4620260000000  0.5680370000000  0.4747580000000 1.0
C      1  0.5399860000000  0.5672440000000  0.4802320000000 1.0
C      1  0.4963540000000  0.5667540000000  0.5443060000000 1.0
C      1  0.4926620000000  0.5558200000000  0.5528790000000 1.0
C      1  0.4557080000000  0.5575550000000  0.4671020000000 1.0
C      1  0.5497460000000  0.5567930000000  0.4785970000000 1.0
C      1  0.4530000000000  0.4950890000000  0.4523920000000 1.0
C      1  0.5644150000000  0.4949480000000  0.4838570000000 1.0
C      1  0.4822130000000  0.4922060000000  0.5634370000000 1.0
C      1  0.4561700000000  0.4991560000000  0.5229800000000 1.0
C      1  0.5018950000000  0.4976640000000  0.4489040000000 1.0
C      1  0.5446320000000  0.4967890000000  0.5278350000000 1.0
C      1  0.5266640000000  0.5793100000000  0.4946160000000 1.0
C      1  0.4911710000000  0.5795160000000  0.5257920000000 1.0
C      1  0.4813710000000  0.5800260000000  0.4791020000000 1.0
C      1  0.5541450000000  0.4714870000000  0.4379940000000 1.0
C      1  0.5275360000000  0.4705340000000  0.5785770000000 1.0
C      1  0.4184680000000  0.4723140000000  0.4854400000000 1.0
C      1  0.4590210000000  0.5517760000000  0.4434390000000 1.0
C      1  0.5683860000000  0.5508620000000  0.4935610000000 1.0
C      1  0.4710130000000  0.5471130000000  0.5582540000000 1.0
C      1  0.5334540000000  0.4342440000000  0.4923870000000 1.0
C      1  0.4903510000000  0.4337070000000  0.5329140000000 1.0
C      1  0.4757070000000  0.4331140000000  0.4743740000000 1.0
C      1  0.4493680000000  0.5298110000000  0.4395480000000 1.0
C      1  0.5778750000000  0.5296790000000  0.4862440000000 1.0
C      1  0.4729040000000  0.5270530000000  0.5712040000000 1.0
C      1  0.4712600000000  0.4955610000000  0.4726940000000 1.0
C      1  0.5378820000000  0.4958770000000  0.4893010000000 1.0
C      1  0.4901140000000  0.4947330000000  0.5363530000000 1.0
C      1  0.5320140000000  0.5323440000000  0.4971350000000 1.0
C      1  0.4872090000000  0.5324140000000  0.5259920000000 1.0
C      1  0.4810530000000  0.5331900000000  0.4733870000000 1.0
C      1  0.5204950000000  0.5321270000000  0.4744350000000 1.0
C      1  0.5128230000000  0.5326540000000  0.5301170000000 1.0
C      1  0.4668220000000  0.5331930000000  0.4945650000000 1.0
C      1  0.5241680000000  0.4247330000000  0.4982030000000 1.0
C      1  0.4898970000000  0.4243150000000  0.5219350000000 1.0
C      1  0.4856360000000  0.4238820000000  0.4798420000000 1.0
C      1  0.4621500000000  0.5741660000000  0.5119440000000 1.0
C      1  0.5074570000000  0.5728910000000  0.4615110000000 1.0
C      1  0.5296540000000  0.5731680000000  0.5266540000000 1.0
C      1  0.4288460000000  0.4634060000000  0.4820020000000 1.0
C      1  0.5517310000000  0.4629270000000  0.4489370000000 1.0
C      1  0.5187910000000  0.4626710000000  0.5704920000000 1.0
C      1  0.5000070000000  0.5682250000000  0.4496220000000 1.0
C      1  0.5435190000000  0.5677720000000  0.5260660000000 1.0
C      1  0.4554900000000  0.5691360000000  0.5242090000000 1.0
C      1  0.4460560000000  0.4834490000000  0.4457850000000 1.0
C      1  0.5733640000000  0.4831280000000  0.4812250000000 1.0
C      1  0.4800090000000  0.4811170000000  0.5733660000000 1.0
C      1  0.5508250000000  0.4599320000000  0.5369550000000 1.0
C      1  0.4440390000000  0.4604230000000  0.5259080000000 1.0
C      1  0.5057460000000  0.4598980000000  0.4386120000000 1.0
C      1  0.4462650000000  0.5222630000000  0.4850010000000 1.0
C      1  0.5398230000000  0.5215390000000  0.4613460000000 1.0
C      1  0.5138160000000  0.5212920000000  0.5524260000000 1.0
C      1  0.4450470000000  0.4571100000000  0.4513190000000 1.0
C      1  0.5764180000000  0.4566800000000  0.4761450000000 1.0
C      1  0.4829720000000  0.4551880000000  0.5782960000000 1.0
C      1  0.5608210000000  0.4845430000000  0.4370540000000 1.0
C      1  0.5244990000000  0.4832540000000  0.5853540000000 1.0
C      1  0.4144580000000  0.4852900000000  0.4798520000000 1.0
C      1  0.4840510000000  0.5837000000000  0.5149510000000 1.0
C      1  0.4944930000000  0.5838100000000  0.4784840000000 1.0
C      1  0.5213120000000  0.5835440000000  0.5063970000000 1.0
C      1  0.4500100000000  0.4871120000000  0.4810340000000 1.0
C      1  0.5408790000000  0.4867990000000  0.4668660000000 1.0
C      1  0.5059500000000  0.4897840000000  0.5534160000000 1.0
C      1  0.5188100000000  0.4544660000000  0.4426680000000 1.0
C      1  0.5417370000000  0.4539820000000  0.5474400000000 1.0
C      1  0.4404550000000  0.4549890000000  0.5127470000000 1.0
C      1  0.4578250000000  0.4847460000000  0.5192280000000 1.0
C      1  0.5047220000000  0.4839980000000  0.4530380000000 1.0
C      1  0.5391970000000  0.4834090000000  0.5283720000000 1.0
C      1  0.4780750000000  0.4307910000000  0.4595230000000 1.0
C      1  0.5454410000000  0.4319990000000  0.5016680000000 1.0
C      1  0.4763100000000  0.4314470000000  0.5384610000000 1.0
C      1  0.4736700000000  0.5282510000000  0.4611640000000 1.0
C      1  0.5462630000000  0.5276700000000  0.4967270000000 1.0
C      1  0.4777120000000  0.5263660000000  0.5374540000000 1.0
C      1  0.5117530000000  0.5518290000000  0.5136580000000 1.0
C      1  0.4828880000000  0.5519400000000  0.5015300000000 1.0
C      1  0.5061360000000  0.5510140000000  0.4834520000000 1.0
C      1  0.4621110000000  0.4305330000000  0.4804620000000 1.0
C      1  0.5352650000000  0.4312380000000  0.4777280000000 1.0
C      1  0.5021570000000  0.4308810000000  0.5418930000000 1.0
C      1  0.5568530000000  0.5537660000000  0.4657200000000 1.0
C      1  0.4998820000000  0.5524250000000  0.5655690000000 1.0
C      1  0.4410110000000  0.5541750000000  0.4675090000000 1.0
C      1  0.4733940000000  0.5665470000000  0.5425160000000 1.0
C      1  0.4746320000000  0.5675300000000  0.4554870000000 1.0
C      1  0.5504620000000  0.5668720000000  0.5009400000000 1.0
C      1  0.4853530000000  0.5199880000000  0.4797570000000 1.0
C      1  0.5243800000000  0.5192370000000  0.4983310000000 1.0
C      1  0.4918910000000  0.5199440000000  0.5174590000000 1.0
C      1  0.4513360000000  0.5327130000000  0.5584860000000 1.0
C      1  0.4705130000000  0.5370250000000  0.4280040000000 1.0
C      1  0.5810670000000  0.5383140000000  0.5094330000000 1.0
C      1  0.4533480000000  0.5060490000000  0.4421900000000 1.0
C      1  0.5733030000000  0.5059510000000  0.4888240000000 1.0
C      1  0.4738980000000  0.5034620000000  0.5686470000000 1.0
C      1  0.4826400000000  0.4605650000000  0.4232860000000 1.0
C      1  0.5754570000000  0.4606110000000  0.5238500000000 1.0
C      1  0.4420920000000  0.4600610000000  0.5535940000000 1.0
C      1  0.5585890000000  0.4375500000000  0.5013920000000 1.0
C      1  0.4698850000000  0.4370050000000  0.5498820000000 1.0
C      1  0.4715480000000  0.4364970000000  0.4481640000000 1.0
C      1  0.4598660000000  0.4885240000000  0.4263390000000 1.0
C      1  0.5837750000000  0.4884720000000  0.5024880000000 1.0
C      1  0.4564390000000  0.4867780000000  0.5727610000000 1.0
C      1  0.5503950000000  0.4888970000000  0.4278690000000 1.0
C      1  0.5375850000000  0.4882470000000  0.5816350000000 1.0
C      1  0.4119620000000  0.4899370000000  0.4934450000000 1.0
C      1  0.4990930000000  0.4901740000000  0.4846990000000 1.0
C      1  0.5142650000000  0.4912190000000  0.5077760000000 1.0
C      1  0.4871360000000  0.4896910000000  0.5074550000000 1.0
C      1  0.4330880000000  0.5297720000000  0.5122490000000 1.0
C      1  0.5239710000000  0.5295000000000  0.4352070000000 1.0
C      1  0.5437400000000  0.5291760000000  0.5549210000000 1.0
C      1  0.4451780000000  0.5174820000000  0.4457460000000 1.0
C      1  0.5741730000000  0.5172100000000  0.4798820000000 1.0
C      1  0.4812480000000  0.5151200000000  0.5724040000000 1.0
C      1  0.5586540000000  0.5163780000000  0.5268820000000 1.0
C      1  0.4532680000000  0.5191330000000  0.5376970000000 1.0
C      1  0.4920030000000  0.5162480000000  0.4368080000000 1.0
C      1  0.5227310000000  0.4743350000000  0.4733730000000 1.0
C      1  0.5119230000000  0.4748930000000  0.5347660000000 1.0
C      1  0.4644450000000  0.4743040000000  0.4930320000000 1.0
C      1  0.5131820000000  0.4918910000000  0.5839480000000 1.0
C      1  0.4203770000000  0.4935590000000  0.4697210000000 1.0
C      1  0.5661990000000  0.4930380000000  0.4471340000000 1.0
C      1  0.5194970000000  0.5523570000000  0.5024570000000 1.0
C      1  0.4886940000000  0.5534470000000  0.5139270000000 1.0
C      1  0.4927590000000  0.5533910000000  0.4810270000000 1.0
C      1  0.5707850000000  0.4633540000000  0.4657040000000 1.0
C      1  0.4948830000000  0.4618910000000  0.5792260000000 1.0
C      1  0.4346620000000  0.4640810000000  0.4573380000000 1.0
C      1  0.5284460000000  0.4876940000000  0.5464480000000 1.0
C      1  0.4479280000000  0.4893980000000  0.5007470000000 1.0
C      1  0.5254290000000  0.4885210000000  0.4549270000000 1.0
C      1  0.4644480000000  0.4494940000000  0.4504710000000 1.0
C      1  0.5604020000000  0.4502500000000  0.4928960000000 1.0
C      1  0.4763750000000  0.4495650000000  0.5557250000000 1.0
C      1  0.4602740000000  0.5315550000000  0.4661110000000 1.0
C      1  0.5488290000000  0.5310490000000  0.4828230000000 1.0
C      1  0.4897050000000  0.5294500000000  0.5480600000000 1.0
C      1  0.5400180000000  0.5084550000000  0.4540960000000 1.0
C      1  0.5199280000000  0.5085990000000  0.5530380000000 1.0
C      1  0.4399990000000  0.5091680000000  0.4885410000000 1.0
C      1  0.4833680000000  0.5545120000000  0.4369770000000 1.0
C      1  0.5629740000000  0.5539520000000  0.5180340000000 1.0
C      1  0.4526690000000  0.5537120000000  0.5433980000000 1.0
C      1  0.5318150000000  0.5414330000000  0.5195930000000 1.0
C      1  0.4680570000000  0.5428500000000  0.5165240000000 1.0
C      1  0.5013610000000  0.5409000000000  0.4631440000000 1.0
C      1  0.5415590000000  0.5615820000000  0.5394280000000 1.0
C      1  0.4448600000000  0.5631320000000  0.5160100000000 1.0
C      1  0.5124060000000  0.5619990000000  0.4444050000000 1.0
C      1  0.4519810000000  0.5314610000000  0.4949630000000 1.0
C      1  0.5281670000000  0.5302820000000  0.4612820000000 1.0
C      1  0.5196540000000  0.5310180000000  0.5434280000000 1.0
C      1  0.5403760000000  0.4307540000000  0.5146740000000 1.0
C      1  0.4676120000000  0.4304060000000  0.5275150000000 1.0
C      1  0.4920820000000  0.4298800000000  0.4577590000000 1.0
C      1  0.5003050000000  0.4932760000000  0.4998700000000 1.0
END
