TITL C-3052148-2842-80 0.0144268566221251 1000000 -1623.3590824201 0 0 240 (C3) n - 1
REM
REM in /scratch/bkarasulu/Only-C240
REM
REM
REM
REM
REM
REM ./C.cell (db1db5b03a21c153a00b653f6831bbfd)
REM
REM compiler GCC version 9.2.1 20190827 (Red Hat 9.2.1-1)
REM options -cpp -mtune=generic -march=x86-64 -g -O0 -fpre-include=/usr/include/finclude/math-vector-fortran.h
REM seed -223375376 -1432836585 -436173621 -5873819 2037090728 -1188921161 -151690000 -1562952730 2102162482 1402962245 -269762889 1111878237 365040328 558087933 -314092095 -2091516977 879750560 583039727 -987832408 -1036294528 -650827545 380973097 -1590990741 1598332032 -64498817 -2126590799 -1827623993 -525133349 1425956652 629613050 1110639382 1179624460 1139239376
REM
CELL 1.54180  100.00000  100.00000  100.00000   90.00000   90.00000   90.00000
LATT -1
SFAC C  
C      1  0.4533110000000  0.4654330000000  0.4616130000000 1.0
C      1  0.5098820000000  0.4670310000000  0.4398030000000 1.0
C      1  0.5565770000000  0.4654190000000  0.4787530000000 1.0
C      1  0.5471810000000  0.4670090000000  0.5386510000000 1.0
C      1  0.4901000000000  0.4654120000000  0.5596150000000 1.0
C      1  0.4429270000000  0.4670230000000  0.5215280000000 1.0
C      1  0.4647580000000  0.5008320000000  0.4276110000000 1.0
C      1  0.5551940000000  0.5035330000000  0.4326070000000 1.0
C      1  0.5803120000000  0.5008060000000  0.5056740000000 1.0
C      1  0.5307680000000  0.5035080000000  0.5814970000000 1.0
C      1  0.4549300000000  0.5008080000000  0.5667150000000 1.0
C      1  0.4140390000000  0.5035380000000  0.4858980000000 1.0
C      1  0.5086000000000  0.5469120000000  0.5397620000000 1.0
C      1  0.4721270000000  0.5483550000000  0.5255730000000 1.0
C      1  0.4612800000000  0.5469260000000  0.4875760000000 1.0
C      1  0.4918050000000  0.5483640000000  0.4630840000000 1.0
C      1  0.5301350000000  0.5469210000000  0.4726880000000 1.0
C      1  0.5360830000000  0.5483500000000  0.5113700000000 1.0
C      1  0.5561940000000  0.5248160000000  0.4647590000000 1.0
C      1  0.5642400000000  0.5298880000000  0.5227350000000 1.0
C      1  0.5024300000000  0.5248040000000  0.5662900000000 1.0
C      1  0.4482000000000  0.5298970000000  0.5442720000000 1.0
C      1  0.4413840000000  0.5248280000000  0.4689640000000 1.0
C      1  0.4875690000000  0.5299130000000  0.4330090000000 1.0
C      1  0.5507860000000  0.4534660000000  0.4736020000000 1.0
C      1  0.5490180000000  0.4547490000000  0.5314240000000 1.0
C      1  0.4974540000000  0.4534570000000  0.5571720000000 1.0
C      1  0.4482630000000  0.4547610000000  0.5267310000000 1.0
C      1  0.4517460000000  0.4534780000000  0.4692000000000 1.0
C      1  0.5027050000000  0.4547700000000  0.4418210000000 1.0
C      1  0.5649010000000  0.5218180000000  0.5338340000000 1.0
C      1  0.4908290000000  0.5169380000000  0.5674410000000 1.0
C      1  0.4382550000000  0.5218300000000  0.5392920000000 1.0
C      1  0.4461860000000  0.5169620000000  0.4583400000000 1.0
C      1  0.4968510000000  0.5218440000000  0.4268850000000 1.0
C      1  0.5629910000000  0.5169470000000  0.4742280000000 1.0
C      1  0.4842410000000  0.5416770000000  0.5321430000000 1.0
C      1  0.4648100000000  0.5429100000000  0.5015580000000 1.0
C      1  0.4800560000000  0.5416890000000  0.4702880000000 1.0
C      1  0.5162600000000  0.5429100000000  0.4687530000000 1.0
C      1  0.5357160000000  0.5416780000000  0.4975910000000 1.0
C      1  0.5189440000000  0.5428990000000  0.5297120000000 1.0
C      1  0.5454870000000  0.5377410000000  0.5497530000000 1.0
C      1  0.4755210000000  0.5404960000000  0.5631250000000 1.0
C      1  0.4341810000000  0.5377590000000  0.5145240000000 1.0
C      1  0.4575840000000  0.5405190000000  0.4472450000000 1.0
C      1  0.5203440000000  0.5377640000000  0.4357440000000 1.0
C      1  0.5669070000000  0.5405000000000  0.4896510000000 1.0
C      1  0.5105380000000  0.5231320000000  0.4904750000000 1.0
C      1  0.5135220000000  0.5232630000000  0.5043950000000 1.0
C      1  0.5029870000000  0.5231290000000  0.5138920000000 1.0
C      1  0.4894400000000  0.5232650000000  0.5095170000000 1.0
C      1  0.4864830000000  0.5231340000000  0.4956450000000 1.0
C      1  0.4970450000000  0.5232680000000  0.4861000000000 1.0
C      1  0.5212020000000  0.4737310000000  0.5368580000000 1.0
C      1  0.4788970000000  0.4733190000000  0.5365390000000 1.0
C      1  0.4574710000000  0.4737440000000  0.4999270000000 1.0
C      1  0.4789000000000  0.4733320000000  0.4634500000000 1.0
C      1  0.5213190000000  0.4737440000000  0.4632000000000 1.0
C      1  0.5421950000000  0.4733190000000  0.4999970000000 1.0
C      1  0.5442980000000  0.4313670000000  0.5175200000000 1.0
C      1  0.5071160000000  0.4300780000000  0.5465430000000 1.0
C      1  0.4626560000000  0.4313730000000  0.5295910000000 1.0
C      1  0.4561130000000  0.4300940000000  0.4828790000000 1.0
C      1  0.4930240000000  0.4313840000000  0.4528520000000 1.0
C      1  0.5367490000000  0.4300880000000  0.4705410000000 1.0
C      1  0.5410960000000  0.5431900000000  0.4663090000000 1.0
C      1  0.5470400000000  0.5489000000000  0.5186780000000 1.0
C      1  0.5086430000000  0.5431780000000  0.5524440000000 1.0
C      1  0.4603190000000  0.5489070000000  0.5314070000000 1.0
C      1  0.4502750000000  0.5431970000000  0.4812710000000 1.0
C      1  0.4926560000000  0.5489180000000  0.4499410000000 1.0
C      1  0.5186080000000  0.5666210000000  0.5007050000000 1.0
C      1  0.5037440000000  0.5664420000000  0.5182830000000 1.0
C      1  0.4901060000000  0.5666220000000  0.5157740000000 1.0
C      1  0.4823160000000  0.5664490000000  0.4941130000000 1.0
C      1  0.4913070000000  0.5666270000000  0.4835570000000 1.0
C      1  0.5139620000000  0.5664470000000  0.4876410000000 1.0
C      1  0.4342610000000  0.5196000000000  0.4797230000000 1.0
C      1  0.4746400000000  0.5239130000000  0.4352840000000 1.0
C      1  0.5504360000000  0.5195920000000  0.4532100000000 1.0
C      1  0.5687330000000  0.5238900000000  0.5103990000000 1.0
C      1  0.5153090000000  0.5195750000000  0.5670770000000 1.0
C      1  0.4566350000000  0.5238940000000  0.5543290000000 1.0
C      1  0.5624250000000  0.4860670000000  0.4515440000000 1.0
C      1  0.5721470000000  0.4885200000000  0.5279400000000 1.0
C      1  0.5107470000000  0.4860490000000  0.5782870000000 1.0
C      1  0.4397260000000  0.4885300000000  0.5485090000000 1.0
C      1  0.4268230000000  0.4860780000000  0.4701620000000 1.0
C      1  0.4881240000000  0.4885480000000  0.4235450000000 1.0
C      1  0.4574500000000  0.4167910000000  0.4841580000000 1.0
C      1  0.4919550000000  0.4180400000000  0.4543350000000 1.0
C      1  0.5349690000000  0.4167850000000  0.4710570000000 1.0
C      1  0.5435440000000  0.4180240000000  0.5158510000000 1.0
C      1  0.5075550000000  0.4167740000000  0.5447400000000 1.0
C      1  0.4644750000000  0.4180300000000  0.5297700000000 1.0
C      1  0.5216090000000  0.5102960000000  0.5737600000000 1.0
C      1  0.4523750000000  0.5110140000000  0.5580740000000 1.0
C      1  0.4253210000000  0.5103220000000  0.4818360000000 1.0
C      1  0.4735220000000  0.5110350000000  0.4297210000000 1.0
C      1  0.5530730000000  0.5103160000000  0.4444100000000 1.0
C      1  0.5741060000000  0.5110100000000  0.5122110000000 1.0
C      1  0.5162340000000  0.5280270000000  0.4680740000000 1.0
C      1  0.5357420000000  0.5271030000000  0.4984230000000 1.0
C      1  0.5195410000000  0.5280160000000  0.5300270000000 1.0
C      1  0.4835030000000  0.5271030000000  0.5317470000000 1.0
C      1  0.4642340000000  0.5280270000000  0.5019140000000 1.0
C      1  0.4807630000000  0.5271140000000  0.4698440000000 1.0
C      1  0.4366470000000  0.4650930000000  0.4843950000000 1.0
C      1  0.4815450000000  0.4659710000000  0.4371250000000 1.0
C      1  0.5451800000000  0.4650870000000  0.4529310000000 1.0
C      1  0.5636680000000  0.4659490000000  0.5154500000000 1.0
C      1  0.5181620000000  0.4650700000000  0.5626550000000 1.0
C      1  0.4547760000000  0.4659540000000  0.5474070000000 1.0
C      1  0.4622550000000  0.4239580000000  0.4936470000000 1.0
C      1  0.4865530000000  0.4252170000000  0.4634420000000 1.0
C      1  0.5243500000000  0.4239560000000  0.4704750000000 1.0
C      1  0.5383600000000  0.4252040000000  0.5066200000000 1.0
C      1  0.5133710000000  0.4239450000000  0.5358370000000 1.0
C      1  0.4750630000000  0.4252060000000  0.5298980000000 1.0
C      1  0.5768560000000  0.4982930000000  0.5191810000000 1.0
C      1  0.5197620000000  0.4960790000000  0.5797530000000 1.0
C      1  0.4449600000000  0.4983000000000  0.5569680000000 1.0
C      1  0.4210500000000  0.4961080000000  0.4772380000000 1.0
C      1  0.4781830000000  0.4983200000000  0.4238490000000 1.0
C      1  0.5591870000000  0.4960990000000  0.4430080000000 1.0
C      1  0.5522920000000  0.5258800000000  0.5513340000000 1.0
C      1  0.4688280000000  0.5277970000000  0.5611350000000 1.0
C      1  0.4294060000000  0.5258980000000  0.5196240000000 1.0
C      1  0.4626510000000  0.5278190000000  0.4424420000000 1.0
C      1  0.5183100000000  0.5259050000000  0.4290560000000 1.0
C      1  0.5685300000000  0.5277980000000  0.4964390000000 1.0
C      1  0.5054640000000  0.5046330000000  0.4657400000000 1.0
C      1  0.5318140000000  0.5043990000000  0.4888090000000 1.0
C      1  0.5269390000000  0.5046210000000  0.5218620000000 1.0
C      1  0.4937860000000  0.5043950000000  0.5331480000000 1.0
C      1  0.4675990000000  0.5046290000000  0.5124000000000 1.0
C      1  0.4744010000000  0.5044070000000  0.4780460000000 1.0
C      1  0.4810810000000  0.4700910000000  0.5499610000000 1.0
C      1  0.4466450000000  0.4712460000000  0.5085390000000 1.0
C      1  0.4661830000000  0.4701090000000  0.4586290000000 1.0
C      1  0.5192740000000  0.4712490000000  0.4495180000000 1.0
C      1  0.5527270000000  0.4700940000000  0.4913930000000 1.0
C      1  0.5340720000000  0.4712310000000  0.5419270000000 1.0
C      1  0.4888440000000  0.4753920000000  0.4295590000000 1.0
C      1  0.5561030000000  0.4736500000000  0.4554580000000 1.0
C      1  0.5665740000000  0.4753670000000  0.5255540000000 1.0
C      1  0.5105150000000  0.4736340000000  0.5708530000000 1.0
C      1  0.4445750000000  0.4753760000000  0.5448730000000 1.0
C      1  0.4333740000000  0.4736600000000  0.4736750000000 1.0
C      1  0.5467950000000  0.4531200000000  0.4608080000000 1.0
C      1  0.5580620000000  0.4541140000000  0.5215790000000 1.0
C      1  0.5105290000000  0.4531060000000  0.5601130000000 1.0
C      1  0.4522660000000  0.4541220000000  0.5394860000000 1.0
C      1  0.4426610000000  0.4531280000000  0.4790530000000 1.0
C      1  0.4896570000000  0.4541360000000  0.4389100000000 1.0
C      1  0.4295580000000  0.5181550000000  0.5304170000000 1.0
C      1  0.4544160000000  0.5178380000000  0.4487270000000 1.0
C      1  0.5088850000000  0.5181660000000  0.4237910000000 1.0
C      1  0.5672010000000  0.5178190000000  0.4861630000000 1.0
C      1  0.5615630000000  0.5181380000000  0.5458020000000 1.0
C      1  0.4783880000000  0.5178150000000  0.5651200000000 1.0
C      1  0.4715410000000  0.5515130000000  0.5108520000000 1.0
C      1  0.4721640000000  0.5501700000000  0.4778870000000 1.0
C      1  0.5048470000000  0.5515170000000  0.4699370000000 1.0
C      1  0.5330840000000  0.5501620000000  0.4869590000000 1.0
C      1  0.5236280000000  0.5515060000000  0.5192390000000 1.0
C      1  0.4947680000000  0.5501570000000  0.5351810000000 1.0
C      1  0.5024600000000  0.4872360000000  0.4227600000000 1.0
C      1  0.5690140000000  0.4852800000000  0.4646270000000 1.0
C      1  0.5656570000000  0.4872080000000  0.5407480000000 1.0
C      1  0.4961220000000  0.4852680000000  0.5774520000000 1.0
C      1  0.4318780000000  0.4872230000000  0.5364840000000 1.0
C      1  0.4348590000000  0.4852960000000  0.4579130000000 1.0
C      1  0.4730560000000  0.5229840000000  0.4914570000000 1.0
C      1  0.4943070000000  0.5229380000000  0.4723050000000 1.0
C      1  0.5208770000000  0.5229800000000  0.4809420000000 1.0
C      1  0.5268380000000  0.5229280000000  0.5089220000000 1.0
C      1  0.5060740000000  0.5229740000000  0.5276140000000 1.0
C      1  0.4788620000000  0.5229310000000  0.5187860000000 1.0
C      1  0.5163630000000  0.5624700000000  0.5139150000000 1.0
C      1  0.4948450000000  0.5620270000000  0.5278090000000 1.0
C      1  0.4797870000000  0.5624750000000  0.5072240000000 1.0
C      1  0.4785130000000  0.5620370000000  0.4816420000000 1.0
C      1  0.5038700000000  0.5624780000000  0.4788940000000 1.0
C      1  0.5266610000000  0.5620310000000  0.4905820000000 1.0
C      1  0.4401090000000  0.5425080000000  0.5251300000000 1.0
C      1  0.4504120000000  0.5444440000000  0.4567940000000 1.0
C      1  0.5081960000000  0.5425170000000  0.4355750000000 1.0
C      1  0.5622260000000  0.5444280000000  0.4786660000000 1.0
C      1  0.5517090000000  0.5424930000000  0.5393180000000 1.0
C      1  0.4873770000000  0.5444200000000  0.5645640000000 1.0
C      1  0.4553680000000  0.4426930000000  0.5318040000000 1.0
C      1  0.4507020000000  0.4415750000000  0.4778610000000 1.0
C      1  0.4947540000000  0.4427040000000  0.4454350000000 1.0
C      1  0.5438040000000  0.4415660000000  0.4683660000000 1.0
C      1  0.5498590000000  0.4426840000000  0.5227290000000 1.0
C      1  0.5054760000000  0.4415550000000  0.5537420000000 1.0
C      1  0.5135300000000  0.4757350000000  0.5246460000000 1.0
C      1  0.4853970000000  0.4756240000000  0.5237880000000 1.0
C      1  0.4718840000000  0.4757440000000  0.4993900000000 1.0
C      1  0.4866920000000  0.4756330000000  0.4754550000000 1.0
C      1  0.5145790000000  0.4757440000000  0.4759510000000 1.0
C      1  0.5279030000000  0.4756240000000  0.5007440000000 1.0
C      1  0.5222700000000  0.4803630000000  0.5134640000000 1.0
C      1  0.4994590000000  0.4801180000000  0.5255890000000 1.0
C      1  0.4771990000000  0.4803680000000  0.5125500000000 1.0
C      1  0.4781030000000  0.4801270000000  0.4867340000000 1.0
C      1  0.5005260000000  0.4803720000000  0.4739750000000 1.0
C      1  0.5224310000000  0.4801220000000  0.4876660000000 1.0
C      1  0.4663390000000  0.5185810000000  0.5132200000000 1.0
C      1  0.4723070000000  0.5180580000000  0.4778590000000 1.0
C      1  0.5053870000000  0.5185860000000  0.4642420000000 1.0
C      1  0.5330270000000  0.5180500000000  0.4870910000000 1.0
C      1  0.5282800000000  0.5185730000000  0.5225480000000 1.0
C      1  0.4946720000000  0.5180450000000  0.5350600000000 1.0
C      1  0.5018420000000  0.4934710000000  0.4698190000000 1.0
C      1  0.5268770000000  0.4931280000000  0.4877250000000 1.0
C      1  0.5252150000000  0.4934600000000  0.5166840000000 1.0
C      1  0.4971890000000  0.4931240000000  0.5294120000000 1.0
C      1  0.4729410000000  0.4934660000000  0.5134930000000 1.0
C      1  0.4759310000000  0.4931340000000  0.4828590000000 1.0
C      1  0.4491320000000  0.5424350000000  0.5355710000000 1.0
C      1  0.4460150000000  0.5388150000000  0.4691360000000 1.0
C      1  0.4946410000000  0.5424480000000  0.4381690000000 1.0
C      1  0.5537330000000  0.5388040000000  0.4686870000000 1.0
C      1  0.5562400000000  0.5424250000000  0.5262820000000 1.0
C      1  0.5002640000000  0.5387930000000  0.5621980000000 1.0
C      1  0.5616640000000  0.4737800000000  0.4685340000000 1.0
C      1  0.5584820000000  0.4754920000000  0.5373360000000 1.0
C      1  0.4964110000000  0.4737690000000  0.5691310000000 1.0
C      1  0.4384170000000  0.4755050000000  0.5319750000000 1.0
C      1  0.4419170000000  0.4737940000000  0.4623220000000 1.0
C      1  0.5030930000000  0.4755170000000  0.4306760000000 1.0
C      1  0.4684350000000  0.4708810000000  0.5452420000000 1.0
C      1  0.4447640000000  0.4707270000000  0.4951380000000 1.0
C      1  0.4765930000000  0.4708980000000  0.4500380000000 1.0
C      1  0.5318190000000  0.4707250000000  0.4545900000000 1.0
C      1  0.5549630000000  0.4708790000000  0.5047050000000 1.0
C      1  0.5234080000000  0.4707080000000  0.5502560000000 1.0
END
