TITL C-3052148-2842-66 -193.039885143357 1000000 -3650.02892196368 0 0 520 (C1) n - 1
REM
REM in /scratch/bkarasulu/Only-C240
REM
REM
REM
REM
REM
REM ./C.cell (db1db5b03a21c153a00b653f6831bbfd)
REM
REM compiler GCC version 9.2.1 20190827 (Red Hat 9.2.1-1)
REM options -cpp -mtune=generic -march=x86-64 -g -O0 -fpre-include=/usr/include/finclude/math-vector-fortran.h
REM seed -1340353427 1937539369 -857247372 -630691947 -1472523699 592816927 -1711357236 1595860439 -754917151 -1093309712 -654059174 -868599154 834214807 197810378 72178253 1611620603 -1722642480 1340445252 -1406847988 86978129 1229899582 -2004282910 -776121186 -1806690004 1753253371 1056007123 1076047656 -969670165 -1962652640 1247824115 1195760636 -1760086103 1440244727
REM
CELL 1.54180  100.00000  100.00000  100.00000   90.00000   90.00000   90.00000
LATT -1
SFAC C  
C      1  0.5711780000000  0.4441720000000  0.4815850000000 1.0
C      1  0.4741260000000  0.4053680000000  0.4844700000000 1.0
C      1  0.4052430000000  0.4984650000000  0.4852540000000 1.0
C      1  0.4767770000000  0.5939050000000  0.4793480000000 1.0
C      1  0.5762280000000  0.5500390000000  0.4830950000000 1.0
C      1  0.5801600000000  0.5547350000000  0.5217020000000 1.0
C      1  0.4711860000000  0.5944580000000  0.5160350000000 1.0
C      1  0.4060880000000  0.4935400000000  0.5193980000000 1.0
C      1  0.4674250000000  0.4076380000000  0.5133440000000 1.0
C      1  0.5767140000000  0.4506730000000  0.5181080000000 1.0
C      1  0.4240330000000  0.4733560000000  0.5134580000000 1.0
C      1  0.4487350000000  0.5636900000000  0.5115560000000 1.0
C      1  0.5453150000000  0.5678110000000  0.5092140000000 1.0
C      1  0.5770100000000  0.4764360000000  0.5124660000000 1.0
C      1  0.5057200000000  0.4165540000000  0.5106930000000 1.0
C      1  0.4227200000000  0.5303810000000  0.4870950000000 1.0
C      1  0.4477090000000  0.4343810000000  0.4880770000000 1.0
C      1  0.5473860000000  0.4349370000000  0.4873240000000 1.0
C      1  0.5784420000000  0.5234580000000  0.4877680000000 1.0
C      1  0.5024120000000  0.5835580000000  0.4848630000000 1.0
C      1  0.5172100000000  0.5142490000000  0.5295310000000 1.0
C      1  0.5155640000000  0.4891160000000  0.5298140000000 1.0
C      1  0.4927810000000  0.4788790000000  0.5297900000000 1.0
C      1  0.4749110000000  0.4972470000000  0.5294340000000 1.0
C      1  0.4933910000000  0.5223590000000  0.5303570000000 1.0
C      1  0.5172250000000  0.4824590000000  0.4739690000000 1.0
C      1  0.5180080000000  0.5125370000000  0.4719620000000 1.0
C      1  0.4945350000000  0.5205640000000  0.4716560000000 1.0
C      1  0.4794870000000  0.5008460000000  0.4711010000000 1.0
C      1  0.4928170000000  0.4792170000000  0.4718520000000 1.0
C      1  0.4755330000000  0.4799010000000  0.4210670000000 1.0
C      1  0.4727180000000  0.5190570000000  0.4202700000000 1.0
C      1  0.5065950000000  0.5316300000000  0.4181640000000 1.0
C      1  0.5292000000000  0.5057170000000  0.4193250000000 1.0
C      1  0.5151250000000  0.4659310000000  0.4201060000000 1.0
C      1  0.4745810000000  0.5237480000000  0.5796210000000 1.0
C      1  0.4693860000000  0.4844210000000  0.5822560000000 1.0
C      1  0.5031990000000  0.4649420000000  0.5808030000000 1.0
C      1  0.5330900000000  0.4924970000000  0.5811510000000 1.0
C      1  0.5145210000000  0.5326800000000  0.5796340000000 1.0
C      1  0.4374060000000  0.4711710000000  0.5331100000000 1.0
C      1  0.4531050000000  0.5530950000000  0.5321220000000 1.0
C      1  0.5369970000000  0.5616490000000  0.5302390000000 1.0
C      1  0.5700660000000  0.4831680000000  0.5336170000000 1.0
C      1  0.5071610000000  0.4274300000000  0.5315630000000 1.0
C      1  0.4347330000000  0.5292570000000  0.4667440000000 1.0
C      1  0.4522390000000  0.4445860000000  0.4670160000000 1.0
C      1  0.5396380000000  0.4371590000000  0.4652580000000 1.0
C      1  0.5701760000000  0.5172500000000  0.4665260000000 1.0
C      1  0.5081510000000  0.5709890000000  0.4649320000000 1.0
C      1  0.4833830000000  0.5304140000000  0.5506130000000 1.0
C      1  0.5244180000000  0.5259800000000  0.5535410000000 1.0
C      1  0.5339770000000  0.4864000000000  0.5511180000000 1.0
C      1  0.5003480000000  0.4660950000000  0.5548680000000 1.0
C      1  0.4694860000000  0.4901830000000  0.5554610000000 1.0
C      1  0.4835700000000  0.4720460000000  0.4469090000000 1.0
C      1  0.5232250000000  0.4741900000000  0.4472330000000 1.0
C      1  0.5331380000000  0.5145550000000  0.4468470000000 1.0
C      1  0.4993490000000  0.5350570000000  0.4466990000000 1.0
C      1  0.4688940000000  0.5093160000000  0.4468000000000 1.0
C      1  0.4062100000000  0.5060510000000  0.5222270000000 1.0
C      1  0.4841030000000  0.5903500000000  0.5167710000000 1.0
C      1  0.5766510000000  0.5414960000000  0.5204730000000 1.0
C      1  0.5649550000000  0.4444710000000  0.5193740000000 1.0
C      1  0.4568990000000  0.4155490000000  0.5169160000000 1.0
C      1  0.4091350000000  0.4859100000000  0.4826550000000 1.0
C      1  0.4873370000000  0.4062260000000  0.4810520000000 1.0
C      1  0.5726940000000  0.4574250000000  0.4804860000000 1.0
C      1  0.5649230000000  0.5568500000000  0.4805750000000 1.0
C      1  0.4642950000000  0.5909610000000  0.4762330000000 1.0
C      1  0.5440290000000  0.5524300000000  0.4878350000000 1.0
C      1  0.5602930000000  0.4730710000000  0.4883800000000 1.0
C      1  0.4903300000000  0.4282710000000  0.4881110000000 1.0
C      1  0.4328140000000  0.4874110000000  0.4900540000000 1.0
C      1  0.4677760000000  0.5651840000000  0.4894270000000 1.0
C      1  0.5457640000000  0.4511960000000  0.5118330000000 1.0
C      1  0.5634510000000  0.5257610000000  0.5129070000000 1.0
C      1  0.4916650000000  0.5714600000000  0.5091360000000 1.0
C      1  0.4250770000000  0.5111010000000  0.5086580000000 1.0
C      1  0.4665010000000  0.4365450000000  0.5094630000000 1.0
C      1  0.5510150000000  0.4464080000000  0.4668150000000 1.0
C      1  0.4694610000000  0.4228800000000  0.4676630000000 1.0
C      1  0.4198770000000  0.5060810000000  0.4675210000000 1.0
C      1  0.4856150000000  0.5781470000000  0.4681010000000 1.0
C      1  0.5695630000000  0.5326380000000  0.4670890000000 1.0
C      1  0.5610000000000  0.5531360000000  0.5369030000000 1.0
C      1  0.4680440000000  0.5759370000000  0.5331780000000 1.0
C      1  0.4249570000000  0.4891990000000  0.5319250000000 1.0
C      1  0.4810830000000  0.4189050000000  0.5303110000000 1.0
C      1  0.5685460000000  0.4680400000000  0.5335140000000 1.0
C      1  0.5568180000000  0.4946320000000  0.5534180000000 1.0
C      1  0.5121510000000  0.4451570000000  0.5505870000000 1.0
C      1  0.4559580000000  0.4689470000000  0.5512710000000 1.0
C      1  0.4586030000000  0.5341590000000  0.5494890000000 1.0
C      1  0.5218490000000  0.5511090000000  0.5489790000000 1.0
C      1  0.5559050000000  0.5056160000000  0.4462810000000 1.0
C      1  0.5147140000000  0.5540340000000  0.4459520000000 1.0
C      1  0.4546180000000  0.5302740000000  0.4500600000000 1.0
C      1  0.4590910000000  0.4645860000000  0.4501670000000 1.0
C      1  0.5221580000000  0.4481950000000  0.4495180000000 1.0
C      1  0.5127540000000  0.5337430000000  0.5078490000000 1.0
C      1  0.5322240000000  0.5001990000000  0.5092270000000 1.0
C      1  0.5060130000000  0.4673560000000  0.5068140000000 1.0
C      1  0.4698290000000  0.4771390000000  0.5058570000000 1.0
C      1  0.4726800000000  0.5238680000000  0.5090950000000 1.0
C      1  0.5091140000000  0.4647440000000  0.4927620000000 1.0
C      1  0.5331480000000  0.5035800000000  0.4943280000000 1.0
C      1  0.5096810000000  0.5344260000000  0.4929230000000 1.0
C      1  0.4699750000000  0.5196560000000  0.4936700000000 1.0
C      1  0.4740750000000  0.4777220000000  0.4919600000000 1.0
C      1  0.4200300000000  0.5256340000000  0.5241070000000 1.0
C      1  0.5031380000000  0.5856170000000  0.5238400000000 1.0
C      1  0.5803370000000  0.5230470000000  0.5271810000000 1.0
C      1  0.5488960000000  0.4341570000000  0.5264520000000 1.0
C      1  0.4468950000000  0.4316040000000  0.5259050000000 1.0
C      1  0.4204440000000  0.4707730000000  0.4742440000000 1.0
C      1  0.5050970000000  0.4134890000000  0.4730230000000 1.0
C      1  0.5769990000000  0.4759280000000  0.4734020000000 1.0
C      1  0.5491520000000  0.5677050000000  0.4719110000000 1.0
C      1  0.4494910000000  0.5707680000000  0.4751890000000 1.0
C      1  0.5605590000000  0.5432840000000  0.4585010000000 1.0
C      1  0.5584720000000  0.4580920000000  0.4584240000000 1.0
C      1  0.4826830000000  0.4192910000000  0.4599820000000 1.0
C      1  0.4196060000000  0.4931460000000  0.4608430000000 1.0
C      1  0.4721380000000  0.5720950000000  0.4652160000000 1.0
C      1  0.5594530000000  0.4571650000000  0.5420720000000 1.0
C      1  0.5643540000000  0.5402770000000  0.5440320000000 1.0
C      1  0.4814370000000  0.5789340000000  0.5405240000000 1.0
C      1  0.4230050000000  0.5023980000000  0.5386010000000 1.0
C      1  0.4684830000000  0.4230340000000  0.5377610000000 1.0
C      1  0.4444860000000  0.5356830000000  0.4588060000000 1.0
C      1  0.5164760000000  0.5632780000000  0.4563670000000 1.0
C      1  0.5650700000000  0.5067770000000  0.4572280000000 1.0
C      1  0.5280540000000  0.4373690000000  0.4570630000000 1.0
C      1  0.4503190000000  0.4555940000000  0.4582170000000 1.0
C      1  0.4449810000000  0.4642930000000  0.5426750000000 1.0
C      1  0.5146680000000  0.4361070000000  0.5400780000000 1.0
C      1  0.5660670000000  0.4937700000000  0.5428400000000 1.0
C      1  0.5263690000000  0.5611560000000  0.5394340000000 1.0
C      1  0.4504700000000  0.5416500000000  0.5402830000000 1.0
C      1  0.5326480000000  0.5479740000000  0.4658990000000 1.0
C      1  0.5542180000000  0.4865110000000  0.4671610000000 1.0
C      1  0.5009280000000  0.4392580000000  0.4700620000000 1.0
C      1  0.4446280000000  0.4806490000000  0.4719220000000 1.0
C      1  0.4656300000000  0.5489880000000  0.4709230000000 1.0
C      1  0.5312420000000  0.4528860000000  0.5325950000000 1.0
C      1  0.5557630000000  0.5147550000000  0.5337120000000 1.0
C      1  0.5008360000000  0.5605680000000  0.5290430000000 1.0
C      1  0.4433170000000  0.5106560000000  0.5273080000000 1.0
C      1  0.4640560000000  0.4509580000000  0.5271750000000 1.0
C      1  0.5758340000000  0.5054860000000  0.5057460000000 1.0
C      1  0.5309450000000  0.4301170000000  0.5051040000000 1.0
C      1  0.4394690000000  0.4489580000000  0.5056360000000 1.0
C      1  0.4352710000000  0.5395630000000  0.5048360000000 1.0
C      1  0.5181240000000  0.5758950000000  0.5029700000000 1.0
C      1  0.5750470000000  0.4942550000000  0.4947200000000 1.0
C      1  0.5289880000000  0.5720000000000  0.4918490000000 1.0
C      1  0.4420000000000  0.5492150000000  0.4942070000000 1.0
C      1  0.4331450000000  0.4583880000000  0.4949660000000 1.0
C      1  0.5205330000000  0.4254600000000  0.4938500000000 1.0
C      1  0.4537770000000  0.4570610000000  0.5040750000000 1.0
C      1  0.4433530000000  0.5245700000000  0.5061590000000 1.0
C      1  0.5089400000000  0.5634610000000  0.5064020000000 1.0
C      1  0.5612240000000  0.5106030000000  0.5098340000000 1.0
C      1  0.5291120000000  0.4461570000000  0.5086510000000 1.0
C      1  0.4570490000000  0.5453800000000  0.4926710000000 1.0
C      1  0.4472230000000  0.4682930000000  0.4946970000000 1.0
C      1  0.5103790000000  0.4372310000000  0.4924520000000 1.0
C      1  0.5599530000000  0.4904820000000  0.4918890000000 1.0
C      1  0.5294030000000  0.5566400000000  0.4880040000000 1.0
C      1  0.5533620000000  0.5315100000000  0.5657410000000 1.0
C      1  0.5459810000000  0.4589140000000  0.5646890000000 1.0
C      1  0.4795810000000  0.4360590000000  0.5542350000000 1.0
C      1  0.4363290000000  0.5035440000000  0.5602610000000 1.0
C      1  0.4863120000000  0.5642110000000  0.5605490000000 1.0
C      1  0.5521240000000  0.4679120000000  0.4354930000000 1.0
C      1  0.5500220000000  0.5407880000000  0.4352260000000 1.0
C      1  0.4761880000000  0.5623740000000  0.4407050000000 1.0
C      1  0.4353290000000  0.4948620000000  0.4414910000000 1.0
C      1  0.4857950000000  0.4353060000000  0.4404420000000 1.0
C      1  0.4621070000000  0.5514900000000  0.4566600000000 1.0
C      1  0.5340020000000  0.5397830000000  0.4528320000000 1.0
C      1  0.5478860000000  0.4823090000000  0.4536420000000 1.0
C      1  0.5040280000000  0.4343190000000  0.4563040000000 1.0
C      1  0.4405160000000  0.4774280000000  0.4574030000000 1.0
C      1  0.4608120000000  0.4472680000000  0.5427770000000 1.0
C      1  0.5323400000000  0.4605340000000  0.5462400000000 1.0
C      1  0.5495650000000  0.5181270000000  0.5470710000000 1.0
C      1  0.5029700000000  0.5644380000000  0.5431360000000 1.0
C      1  0.4413730000000  0.5188660000000  0.5422640000000 1.0
C      1  0.5270740000000  0.5022560000000  0.4654930000000 1.0
C      1  0.5062500000000  0.4791970000000  0.4650060000000 1.0
C      1  0.4827680000000  0.4876240000000  0.4646620000000 1.0
C      1  0.4836400000000  0.5135900000000  0.4643640000000 1.0
C      1  0.5080510000000  0.5212330000000  0.4651780000000 1.0
C      1  0.5218400000000  0.5011080000000  0.5359340000000 1.0
C      1  0.5071300000000  0.5219910000000  0.5366380000000 1.0
C      1  0.4820910000000  0.5194980000000  0.5402510000000 1.0
C      1  0.4824310000000  0.4865160000000  0.5374880000000 1.0
C      1  0.5069880000000  0.4785870000000  0.5362030000000 1.0
C      1  0.4787480000000  0.4965390000000  0.5049160000000 1.0
C      1  0.4877430000000  0.5182970000000  0.5056900000000 1.0
C      1  0.5111060000000  0.5179930000000  0.5055290000000 1.0
C      1  0.5169150000000  0.4971080000000  0.5069150000000 1.0
C      1  0.4986270000000  0.4806600000000  0.5054500000000 1.0
C      1  0.4802500000000  0.5082580000000  0.4960380000000 1.0
C      1  0.4868710000000  0.4845870000000  0.4965930000000 1.0
C      1  0.5110650000000  0.4870360000000  0.4987320000000 1.0
C      1  0.5183060000000  0.5084660000000  0.4964210000000 1.0
C      1  0.4994740000000  0.5211520000000  0.4964030000000 1.0
C      1  0.4435270000000  0.5551110000000  0.5218580000000 1.0
C      1  0.5361160000000  0.5711170000000  0.5196220000000 1.0
C      1  0.5784620000000  0.4870420000000  0.5224850000000 1.0
C      1  0.5145760000000  0.4206320000000  0.5212610000000 1.0
C      1  0.4300030000000  0.4637850000000  0.5231740000000 1.0
C      1  0.4424270000000  0.4425570000000  0.4776800000000 1.0
C      1  0.5384270000000  0.4291600000000  0.4770310000000 1.0
C      1  0.5786840000000  0.5126220000000  0.4774950000000 1.0
C      1  0.5133400000000  0.5800890000000  0.4746230000000 1.0
C      1  0.4294840000000  0.5378380000000  0.4770490000000 1.0
C      1  0.4178880000000  0.5241380000000  0.5098300000000 1.0
C      1  0.4972010000000  0.5855640000000  0.5097170000000 1.0
C      1  0.5781860000000  0.5283120000000  0.5132600000000 1.0
C      1  0.5527590000000  0.4377600000000  0.5125390000000 1.0
C      1  0.4520830000000  0.4294450000000  0.5116660000000 1.0
C      1  0.4207900000000  0.4771570000000  0.4883330000000 1.0
C      1  0.4992800000000  0.4147580000000  0.4868400000000 1.0
C      1  0.5752690000000  0.4710390000000  0.4872470000000 1.0
C      1  0.5524820000000  0.5653850000000  0.4859230000000 1.0
C      1  0.4533460000000  0.5695460000000  0.4887180000000 1.0
C      1  0.4950100000000  0.5672230000000  0.4707380000000 1.0
C      1  0.5595500000000  0.5251920000000  0.4753580000000 1.0
C      1  0.5415250000000  0.4537050000000  0.4754060000000 1.0
C      1  0.4650380000000  0.4374470000000  0.4714990000000 1.0
C      1  0.4324440000000  0.5147770000000  0.4704220000000 1.0
C      1  0.4927100000000  0.4288200000000  0.5265750000000 1.0
C      1  0.5584800000000  0.4758220000000  0.5255220000000 1.0
C      1  0.5485000000000  0.5517570000000  0.5274460000000 1.0
C      1  0.4654310000000  0.5614980000000  0.5280700000000 1.0
C      1  0.4388520000000  0.4852720000000  0.5275470000000 1.0
C      1  0.4727480000000  0.4416730000000  0.5212730000000 1.0
C      1  0.4289330000000  0.5103490000000  0.5226490000000 1.0
C      1  0.4891640000000  0.5671450000000  0.5229400000000 1.0
C      1  0.5576680000000  0.5284060000000  0.5262220000000 1.0
C      1  0.5444380000000  0.4562170000000  0.5254870000000 1.0
C      1  0.4732040000000  0.5601930000000  0.4757250000000 1.0
C      1  0.4390580000000  0.4920230000000  0.4779140000000 1.0
C      1  0.4886010000000  0.4364590000000  0.4760670000000 1.0
C      1  0.5540710000000  0.4732910000000  0.4749170000000 1.0
C      1  0.5451060000000  0.5454120000000  0.4743320000000 1.0
C      1  0.4475920000000  0.5499370000000  0.4609120000000 1.0
C      1  0.5302810000000  0.5622160000000  0.4609100000000 1.0
C      1  0.5671750000000  0.4932710000000  0.4623710000000 1.0
C      1  0.5177210000000  0.4276520000000  0.4590140000000 1.0
C      1  0.4378020000000  0.4624940000000  0.4597020000000 1.0
C      1  0.4461420000000  0.4500620000000  0.5409160000000 1.0
C      1  0.5286210000000  0.4383550000000  0.5365160000000 1.0
C      1  0.5688160000000  0.5071840000000  0.5381870000000 1.0
C      1  0.5156090000000  0.5709000000000  0.5378160000000 1.0
C      1  0.4386610000000  0.5333310000000  0.5381750000000 1.0
C      1  0.5720020000000  0.5594210000000  0.5312020000000 1.0
C      1  0.5772050000000  0.4638940000000  0.5222020000000 1.0
C      1  0.4783310000000  0.4098570000000  0.5204260000000 1.0
C      1  0.4164180000000  0.4843470000000  0.5215340000000 1.0
C      1  0.4651350000000  0.5860580000000  0.5244520000000 1.0
C      1  0.5588370000000  0.4394300000000  0.4780420000000 1.0
C      1  0.5778650000000  0.5368920000000  0.4786540000000 1.0
C      1  0.4892710000000  0.5882070000000  0.4772840000000 1.0
C      1  0.4146240000000  0.5076160000000  0.4806350000000 1.0
C      1  0.4666620000000  0.4135960000000  0.4773250000000 1.0
C      1  0.4677720000000  0.4768200000000  0.4309320000000 1.0
C      1  0.4674890000000  0.5257240000000  0.4311580000000 1.0
C      1  0.5131170000000  0.5399860000000  0.4263910000000 1.0
C      1  0.5392580000000  0.5027990000000  0.4275980000000 1.0
C      1  0.5141590000000  0.4594000000000  0.4311530000000 1.0
C      1  0.4674130000000  0.5249810000000  0.5688870000000 1.0
C      1  0.4621160000000  0.4809300000000  0.5729880000000 1.0
C      1  0.5081660000000  0.4570620000000  0.5712880000000 1.0
C      1  0.5414940000000  0.4961520000000  0.5716910000000 1.0
C      1  0.5146770000000  0.5402860000000  0.5691840000000 1.0
C      1  0.5106840000000  0.5247940000000  0.4512310000000 1.0
C      1  0.5273060000000  0.5000270000000  0.4509950000000 1.0
C      1  0.5079850000000  0.4767940000000  0.4504510000000 1.0
C      1  0.4813860000000  0.4873030000000  0.4500140000000 1.0
C      1  0.4823710000000  0.5162580000000  0.4499280000000 1.0
C      1  0.5109820000000  0.4758300000000  0.5504380000000 1.0
C      1  0.5277530000000  0.5009130000000  0.5491180000000 1.0
C      1  0.5085070000000  0.5238240000000  0.5509400000000 1.0
C      1  0.4819440000000  0.5105790000000  0.5521730000000 1.0
C      1  0.4828960000000  0.4842010000000  0.5525030000000 1.0
C      1  0.4139760000000  0.4824510000000  0.4691760000000 1.0
C      1  0.4598620000000  0.5794990000000  0.4696830000000 1.0
C      1  0.5565110000000  0.5536140000000  0.4685620000000 1.0
C      1  0.5664360000000  0.4648760000000  0.4688570000000 1.0
C      1  0.4918700000000  0.4106980000000  0.4677070000000 1.0
C      1  0.4160130000000  0.5125780000000  0.5302430000000 1.0
C      1  0.4559470000000  0.4213680000000  0.5305680000000 1.0
C      1  0.5558240000000  0.4474580000000  0.5312940000000 1.0
C      1  0.5704820000000  0.5337760000000  0.5322980000000 1.0
C      1  0.4895660000000  0.5826810000000  0.5290220000000 1.0
C      1  0.4968130000000  0.5332670000000  0.5546470000000 1.0
C      1  0.5345120000000  0.5150100000000  0.5529800000000 1.0
C      1  0.5262610000000  0.4744630000000  0.5498950000000 1.0
C      1  0.4869430000000  0.4701860000000  0.5554770000000 1.0
C      1  0.4696230000000  0.5040480000000  0.5563760000000 1.0
C      1  0.4966630000000  0.4674940000000  0.4456550000000 1.0
C      1  0.5331240000000  0.4853430000000  0.4472670000000 1.0
C      1  0.5263250000000  0.5263860000000  0.4498050000000 1.0
C      1  0.4861170000000  0.5304870000000  0.4455140000000 1.0
C      1  0.4690050000000  0.4953950000000  0.4458170000000 1.0
C      1  0.5799080000000  0.5096510000000  0.5297630000000 1.0
C      1  0.5362530000000  0.4291670000000  0.5289650000000 1.0
C      1  0.4399870000000  0.4431040000000  0.5299020000000 1.0
C      1  0.4289390000000  0.5361360000000  0.5284250000000 1.0
C      1  0.5155470000000  0.5807220000000  0.5273660000000 1.0
C      1  0.5779370000000  0.4894250000000  0.4706800000000 1.0
C      1  0.5363120000000  0.5720270000000  0.4689210000000 1.0
C      1  0.4420480000000  0.5587390000000  0.4708910000000 1.0
C      1  0.4283310000000  0.4599850000000  0.4702930000000 1.0
C      1  0.5178300000000  0.4185430000000  0.4698890000000 1.0
C      1  0.4973840000000  0.5696480000000  0.4857180000000 1.0
C      1  0.5636640000000  0.5237590000000  0.4886240000000 1.0
C      1  0.5416470000000  0.4488970000000  0.4880630000000 1.0
C      1  0.4615790000000  0.4369920000000  0.4869300000000 1.0
C      1  0.4262400000000  0.5162960000000  0.4856750000000 1.0
C      1  0.4949800000000  0.4259100000000  0.5113560000000 1.0
C      1  0.5620180000000  0.4761570000000  0.5121190000000 1.0
C      1  0.5497360000000  0.5544150000000  0.5117740000000 1.0
C      1  0.4626720000000  0.5622460000000  0.5124040000000 1.0
C      1  0.4362930000000  0.4819000000000  0.5131090000000 1.0
C      1  0.5469020000000  0.5307710000000  0.4735250000000 1.0
C      1  0.5396720000000  0.4673400000000  0.4732350000000 1.0
C      1  0.4777300000000  0.4446580000000  0.4717370000000 1.0
C      1  0.4430110000000  0.5046630000000  0.4718190000000 1.0
C      1  0.4869980000000  0.5554190000000  0.4719340000000 1.0
C      1  0.5455090000000  0.4710300000000  0.5277070000000 1.0
C      1  0.5457320000000  0.5375100000000  0.5276040000000 1.0
C      1  0.4791820000000  0.5565950000000  0.5271040000000 1.0
C      1  0.4492120000000  0.4963240000000  0.5287350000000 1.0
C      1  0.4861340000000  0.4420280000000  0.5263140000000 1.0
C      1  0.4697710000000  0.5639980000000  0.4528820000000 1.0
C      1  0.5499200000000  0.5408750000000  0.4491640000000 1.0
C      1  0.5530650000000  0.4679750000000  0.4495300000000 1.0
C      1  0.4901130000000  0.4277260000000  0.4511730000000 1.0
C      1  0.4300010000000  0.4882240000000  0.4523330000000 1.0
C      1  0.4684980000000  0.4340600000000  0.5467780000000 1.0
C      1  0.5480600000000  0.4590910000000  0.5508640000000 1.0
C      1  0.5561700000000  0.5315640000000  0.5519760000000 1.0
C      1  0.4895550000000  0.5706430000000  0.5486690000000 1.0
C      1  0.4316780000000  0.5082400000000  0.5481610000000 1.0
C      1  0.4786090000000  0.4590490000000  0.5555800000000 1.0
C      1  0.4586910000000  0.5126410000000  0.5611070000000 1.0
C      1  0.5015250000000  0.5455600000000  0.5612790000000 1.0
C      1  0.5439220000000  0.5101290000000  0.5669990000000 1.0
C      1  0.5223460000000  0.4558640000000  0.5683730000000 1.0
C      1  0.4749290000000  0.5377320000000  0.4385290000000 1.0
C      1  0.4581810000000  0.4873230000000  0.4401110000000 1.0
C      1  0.5007450000000  0.4544750000000  0.4396820000000 1.0
C      1  0.5423320000000  0.4893970000000  0.4334090000000 1.0
C      1  0.5269740000000  0.5424200000000  0.4294670000000 1.0
C      1  0.4797020000000  0.5078230000000  0.4149600000000 1.0
C      1  0.4994510000000  0.5205850000000  0.4152120000000 1.0
C      1  0.5169080000000  0.5006410000000  0.4148210000000 1.0
C      1  0.5104540000000  0.4759610000000  0.4121210000000 1.0
C      1  0.4871970000000  0.4845870000000  0.4151050000000 1.0
C      1  0.4803050000000  0.4904820000000  0.5889940000000 1.0
C      1  0.5032170000000  0.4767200000000  0.5879220000000 1.0
C      1  0.5213190000000  0.4965960000000  0.5874830000000 1.0
C      1  0.5103640000000  0.5212120000000  0.5864080000000 1.0
C      1  0.4841570000000  0.5169550000000  0.5871290000000 1.0
C      1  0.5388340000000  0.5211430000000  0.4785850000000 1.0
C      1  0.5261460000000  0.4706870000000  0.4766150000000 1.0
C      1  0.4783750000000  0.4585890000000  0.4741190000000 1.0
C      1  0.4565690000000  0.5078660000000  0.4747590000000 1.0
C      1  0.4933750000000  0.5439280000000  0.4763420000000 1.0
C      1  0.5365740000000  0.4803880000000  0.5232120000000 1.0
C      1  0.5323840000000  0.5339190000000  0.5240510000000 1.0
C      1  0.4802270000000  0.5427340000000  0.5238450000000 1.0
C      1  0.4620520000000  0.4929960000000  0.5233210000000 1.0
C      1  0.4928760000000  0.4543900000000  0.5240830000000 1.0
C      1  0.5390920000000  0.4880960000000  0.5117160000000 1.0
C      1  0.4987090000000  0.4556090000000  0.5109560000000 1.0
C      1  0.4649950000000  0.4904300000000  0.5090180000000 1.0
C      1  0.4736980000000  0.5377040000000  0.5119280000000 1.0
C      1  0.5261790000000  0.5383090000000  0.5116240000000 1.0
C      1  0.5410830000000  0.5145670000000  0.4908280000000 1.0
C      1  0.5006360000000  0.5442940000000  0.4885490000000 1.0
C      1  0.4574720000000  0.5143920000000  0.4878590000000 1.0
C      1  0.4760120000000  0.4641460000000  0.4871490000000 1.0
C      1  0.5221790000000  0.4662710000000  0.4891380000000 1.0
C      1  0.4820090000000  0.5038090000000  0.5904600000000 1.0
C      1  0.4966410000000  0.5222560000000  0.5881380000000 1.0
C      1  0.5170940000000  0.5096200000000  0.5887600000000 1.0
C      1  0.5135630000000  0.4856060000000  0.5895160000000 1.0
C      1  0.4913770000000  0.4829500000000  0.5908700000000 1.0
C      1  0.4907060000000  0.4987790000000  0.4149610000000 1.0
C      1  0.4966940000000  0.4759390000000  0.4106840000000 1.0
C      1  0.5171440000000  0.4876670000000  0.4113800000000 1.0
C      1  0.5030550000000  0.5062620000000  0.4145270000000 1.0
C      1  0.4852160000000  0.5210050000000  0.4142280000000 1.0
C      1  0.4963560000000  0.5626060000000  0.4986180000000 1.0
C      1  0.5562960000000  0.5211070000000  0.5005670000000 1.0
C      1  0.5377420000000  0.4549430000000  0.5004330000000 1.0
C      1  0.4655920000000  0.4461090000000  0.4984600000000 1.0
C      1  0.4357930000000  0.5126240000000  0.4986530000000 1.0
C      1  0.4957140000000  0.4355560000000  0.4993350000000 1.0
C      1  0.5545650000000  0.4790270000000  0.5001000000000 1.0
C      1  0.5462480000000  0.5457630000000  0.5005970000000 1.0
C      1  0.4678490000000  0.5548330000000  0.4997840000000 1.0
C      1  0.4428450000000  0.4827440000000  0.5004950000000 1.0
C      1  0.4932610000000  0.5058300000000  0.5586210000000 1.0
C      1  0.5063480000000  0.5112100000000  0.5577830000000 1.0
C      1  0.5154420000000  0.5003780000000  0.5570370000000 1.0
C      1  0.5077170000000  0.4881580000000  0.5581060000000 1.0
C      1  0.4939670000000  0.4917460000000  0.5589430000000 1.0
C      1  0.4923800000000  0.4945640000000  0.4435360000000 1.0
C      1  0.5055970000000  0.4896190000000  0.4438180000000 1.0
C      1  0.5143430000000  0.5005920000000  0.4446360000000 1.0
C      1  0.5067340000000  0.5125340000000  0.4439370000000 1.0
C      1  0.4929950000000  0.5086180000000  0.4432380000000 1.0
C      1  0.5299160000000  0.5201320000000  0.5252140000000 1.0
C      1  0.5228500000000  0.4776360000000  0.5241660000000 1.0
C      1  0.4852750000000  0.4663290000000  0.5252680000000 1.0
C      1  0.4711990000000  0.5127260000000  0.5320570000000 1.0
C      1  0.4926580000000  0.5362000000000  0.5246590000000 1.0
C      1  0.5290720000000  0.4909820000000  0.4736780000000 1.0
C      1  0.5255230000000  0.5239450000000  0.4768560000000 1.0
C      1  0.4862220000000  0.5319440000000  0.4760910000000 1.0
C      1  0.4655970000000  0.4967980000000  0.4743370000000 1.0
C      1  0.4907790000000  0.4647520000000  0.4759830000000 1.0
C      1  0.4446120000000  0.5637670000000  0.4983050000000 1.0
C      1  0.5442990000000  0.5725460000000  0.4962030000000 1.0
C      1  0.5805170000000  0.4794690000000  0.4984820000000 1.0
C      1  0.5097460000000  0.4144130000000  0.4974010000000 1.0
C      1  0.4220820000000  0.4677670000000  0.4995280000000 1.0
C      1  0.4429830000000  0.4347280000000  0.5014820000000 1.0
C      1  0.5463080000000  0.4302910000000  0.5012640000000 1.0
C      1  0.5823880000000  0.5199820000000  0.5014900000000 1.0
C      1  0.5067840000000  0.5864770000000  0.4986640000000 1.0
C      1  0.4218240000000  0.5340130000000  0.5006170000000 1.0
C      1  0.5113100000000  0.5057290000000  0.4835780000000 1.0
C      1  0.5090820000000  0.4904430000000  0.4848750000000 1.0
C      1  0.4940930000000  0.4886040000000  0.4841350000000 1.0
C      1  0.4875670000000  0.5024000000000  0.4838440000000 1.0
C      1  0.4981950000000  0.5126530000000  0.4839900000000 1.0
C      1  0.5086460000000  0.4958590000000  0.5189710000000 1.0
C      1  0.5077270000000  0.5103180000000  0.5181800000000 1.0
C      1  0.4928040000000  0.5126280000000  0.5186920000000 1.0
C      1  0.4854010000000  0.4988460000000  0.5182090000000 1.0
C      1  0.4959590000000  0.4880890000000  0.5181890000000 1.0
C      1  0.5418270000000  0.5223650000000  0.5026700000000 1.0
C      1  0.5307020000000  0.4681470000000  0.5006800000000 1.0
C      1  0.4775240000000  0.4556140000000  0.4991310000000 1.0
C      1  0.4492700000000  0.5061970000000  0.4964810000000 1.0
C      1  0.4929600000000  0.5479620000000  0.5004010000000 1.0
C      1  0.5396590000000  0.4805310000000  0.4992390000000 1.0
C      1  0.5348960000000  0.5356300000000  0.5002950000000 1.0
C      1  0.4784360000000  0.5437660000000  0.4994370000000 1.0
C      1  0.4544250000000  0.4922660000000  0.4983620000000 1.0
C      1  0.4918160000000  0.4502720000000  0.4992440000000 1.0
C      1  0.4595120000000  0.5192430000000  0.4418690000000 1.0
C      1  0.5056320000000  0.5454630000000  0.4388700000000 1.0
C      1  0.5446910000000  0.5119960000000  0.4389530000000 1.0
C      1  0.5245540000000  0.4606330000000  0.4425280000000 1.0
C      1  0.4711270000000  0.4665730000000  0.4422300000000 1.0
C      1  0.4590920000000  0.4807710000000  0.5591030000000 1.0
C      1  0.5009560000000  0.4514170000000  0.5577930000000 1.0
C      1  0.5456140000000  0.4878840000000  0.5594630000000 1.0
C      1  0.5252490000000  0.5396530000000  0.5574740000000 1.0
C      1  0.4707160000000  0.5339100000000  0.5573500000000 1.0
C      1  0.4625970000000  0.4858680000000  0.4854010000000 1.0
C      1  0.4751910000000  0.5325260000000  0.4867580000000 1.0
C      1  0.5229300000000  0.5347400000000  0.4862370000000 1.0
C      1  0.5371770000000  0.4915750000000  0.4863330000000 1.0
C      1  0.4999270000000  0.4568920000000  0.4856600000000 1.0
C      1  0.4648250000000  0.5188220000000  0.5202130000000 1.0
C      1  0.4741700000000  0.4660170000000  0.5133490000000 1.0
C      1  0.5199960000000  0.4677990000000  0.5135760000000 1.0
C      1  0.5380950000000  0.5127850000000  0.5154890000000 1.0
C      1  0.5015010000000  0.5419420000000  0.5137730000000 1.0
C      1  0.5477670000000  0.4768420000000  0.4276540000000 1.0
C      1  0.4890320000000  0.4459320000000  0.4341110000000 1.0
C      1  0.4464450000000  0.4957050000000  0.4353160000000 1.0
C      1  0.4783140000000  0.5521510000000  0.4331680000000 1.0
C      1  0.5403930000000  0.5398670000000  0.4267990000000 1.0
C      1  0.5484890000000  0.5226440000000  0.5734020000000 1.0
C      1  0.4903420000000  0.5544200000000  0.5675620000000 1.0
C      1  0.4470730000000  0.5046830000000  0.5671050000000 1.0
C      1  0.4865780000000  0.4473400000000  0.5568060000000 1.0
C      1  0.5354070000000  0.4589760000000  0.5721510000000 1.0
C      1  0.4637190000000  0.5403580000000  0.4478060000000 1.0
C      1  0.5269200000000  0.5479510000000  0.4426110000000 1.0
C      1  0.5526820000000  0.4922760000000  0.4436940000000 1.0
C      1  0.5087040000000  0.4451960000000  0.4478930000000 1.0
C      1  0.4523190000000  0.4765860000000  0.4488040000000 1.0
C      1  0.4652840000000  0.4585380000000  0.5511590000000 1.0
C      1  0.5235930000000  0.4519970000000  0.5549730000000 1.0
C      1  0.5541550000000  0.5078720000000  0.5566780000000 1.0
C      1  0.5086730000000  0.5541350000000  0.5516370000000 1.0
C      1  0.4525710000000  0.5217510000000  0.5511320000000 1.0
C      1  0.4607250000000  0.4610950000000  0.5174490000000 1.0
C      1  0.4506580000000  0.5196340000000  0.5180000000000 1.0
C      1  0.5083370000000  0.5545310000000  0.5183870000000 1.0
C      1  0.5512240000000  0.5074620000000  0.5209450000000 1.0
C      1  0.5224730000000  0.4540370000000  0.5194520000000 1.0
C      1  0.4629870000000  0.5393180000000  0.4810460000000 1.0
C      1  0.4532720000000  0.4740550000000  0.4813000000000 1.0
C      1  0.5084650000000  0.4452230000000  0.4802570000000 1.0
C      1  0.5508420000000  0.4943060000000  0.4806980000000 1.0
C      1  0.5233270000000  0.5474960000000  0.4787300000000 1.0
C      1  0.5280730000000  0.4238650000000  0.5183830000000 1.0
C      1  0.4342910000000  0.4509010000000  0.5194950000000 1.0
C      1  0.4340780000000  0.5452170000000  0.5185020000000 1.0
C      1  0.5243630000000  0.5782320000000  0.5165850000000 1.0
C      1  0.5808360000000  0.5002190000000  0.5190230000000 1.0
C      1  0.5268300000000  0.5778980000000  0.4784220000000 1.0
C      1  0.4357670000000  0.5500480000000  0.4805300000000 1.0
C      1  0.4326500000000  0.4521360000000  0.4812040000000 1.0
C      1  0.5267400000000  0.4224470000000  0.4804180000000 1.0
C      1  0.5798180000000  0.4991700000000  0.4810860000000 1.0
END
