TITL C-3052148-2842-26 5.42775922399768 1000000 -3649.23570210883 0 0 520 (C1) n - 1
REM
REM in /scratch/bkarasulu/Only-C240
REM
REM
REM
REM
REM
REM ./C.cell (db1db5b03a21c153a00b653f6831bbfd)
REM
REM compiler GCC version 9.2.1 20190827 (Red Hat 9.2.1-1)
REM options -cpp -mtune=generic -march=x86-64 -g -O0 -fpre-include=/usr/include/finclude/math-vector-fortran.h
REM seed 719451657 -232109321 1802819451 -935055188 883197204 -1771911959 784660065 -1607110559 963751534 1977871764 599128179 -1837332689 355561589 119029304 -178758116 1540924825 -1965931877 1703050330 231844405 1926137395 -1591783110 -339024127 -748355426 553927069 1245289248 -1925029560 -505043786 -543279935 1957703157 1703744755 -65850570 -699201318 -1261463907
REM
CELL 1.54180  100.00000  100.00000  100.00000   90.00000   90.00000   90.00000
LATT -1
SFAC C  
C      1  0.4766130000000  0.4279500000000  0.5311140000000 1.0
C      1  0.4487080000000  0.5574080000000  0.5297490000000 1.0
C      1  0.5742600000000  0.5150840000000  0.5314950000000 1.0
C      1  0.5303990000000  0.5291370000000  0.5163530000000 1.0
C      1  0.5103830000000  0.4594530000000  0.5160500000000 1.0
C      1  0.4595160000000  0.5116990000000  0.5164100000000 1.0
C      1  0.4697190000000  0.4707180000000  0.4847650000000 1.0
C      1  0.4896320000000  0.5402960000000  0.4857040000000 1.0
C      1  0.5404230000000  0.4883820000000  0.4854240000000 1.0
C      1  0.5487000000000  0.4746860000000  0.5282270000000 1.0
C      1  0.4539720000000  0.4700060000000  0.5278170000000 1.0
C      1  0.4971850000000  0.5537050000000  0.5276950000000 1.0
C      1  0.5113380000000  0.5193040000000  0.5600960000000 1.0
C      1  0.5097880000000  0.4802940000000  0.5575540000000 1.0
C      1  0.4765420000000  0.5013490000000  0.5585890000000 1.0
C      1  0.4615920000000  0.5721760000000  0.5104920000000 1.0
C      1  0.5819060000000  0.4967550000000  0.5116480000000 1.0
C      1  0.4564530000000  0.4303500000000  0.5114650000000 1.0
C      1  0.4366210000000  0.5221360000000  0.4469870000000 1.0
C      1  0.5507520000000  0.5437330000000  0.4472160000000 1.0
C      1  0.5126710000000  0.4341600000000  0.4468770000000 1.0
C      1  0.5395930000000  0.4245460000000  0.4991060000000 1.0
C      1  0.4150620000000  0.5035320000000  0.4990810000000 1.0
C      1  0.5449660000000  0.5719950000000  0.4998860000000 1.0
C      1  0.4507790000000  0.4769940000000  0.5563430000000 1.0
C      1  0.5064340000000  0.5537220000000  0.5564970000000 1.0
C      1  0.5448020000000  0.4674940000000  0.5565630000000 1.0
C      1  0.4569390000000  0.5547550000000  0.5423830000000 1.0
C      1  0.5672730000000  0.5093150000000  0.5438880000000 1.0
C      1  0.4754560000000  0.4369010000000  0.5434320000000 1.0
C      1  0.5331340000000  0.5567310000000  0.5093280000000 1.0
C      1  0.5327800000000  0.4425970000000  0.5092620000000 1.0
C      1  0.4339430000000  0.5005220000000  0.5090240000000 1.0
C      1  0.4869100000000  0.5051100000000  0.4174860000000 1.0
C      1  0.5110070000000  0.5087240000000  0.4175500000000 1.0
C      1  0.5021180000000  0.4860860000000  0.4173940000000 1.0
C      1  0.5413690000000  0.4740040000000  0.5696980000000 1.0
C      1  0.4598160000000  0.4779750000000  0.5692570000000 1.0
C      1  0.5031560000000  0.5479420000000  0.5701090000000 1.0
C      1  0.5318890000000  0.4817930000000  0.4513370000000 1.0
C      1  0.4681510000000  0.4814520000000  0.4508600000000 1.0
C      1  0.4998390000000  0.5364530000000  0.4514750000000 1.0
C      1  0.5438740000000  0.4530890000000  0.5305280000000 1.0
C      1  0.4387930000000  0.4862340000000  0.5297610000000 1.0
C      1  0.5188440000000  0.5589370000000  0.5306210000000 1.0
C      1  0.5538520000000  0.4582130000000  0.4655260000000 1.0
C      1  0.4367320000000  0.4742580000000  0.4652750000000 1.0
C      1  0.5092620000000  0.5670930000000  0.4659380000000 1.0
C      1  0.5330560000000  0.4603070000000  0.5377070000000 1.0
C      1  0.4517850000000  0.4920290000000  0.5366600000000 1.0
C      1  0.5183140000000  0.5444990000000  0.5375070000000 1.0
C      1  0.4655920000000  0.5578720000000  0.5076070000000 1.0
C      1  0.5673740000000  0.4986050000000  0.5086310000000 1.0
C      1  0.4651470000000  0.4419960000000  0.5081820000000 1.0
C      1  0.5104160000000  0.5856880000000  0.5208780000000 1.0
C      1  0.5695870000000  0.4471910000000  0.5201340000000 1.0
C      1  0.4198500000000  0.4661530000000  0.5203190000000 1.0
C      1  0.4838400000000  0.4754550000000  0.5790160000000 1.0
C      1  0.4866030000000  0.5325840000000  0.5789650000000 1.0
C      1  0.5340070000000  0.4952670000000  0.5805470000000 1.0
C      1  0.4331900000000  0.5359560000000  0.5204220000000 1.0
C      1  0.5642220000000  0.5397350000000  0.5211950000000 1.0
C      1  0.5028480000000  0.4247890000000  0.5210090000000 1.0
C      1  0.5146630000000  0.4317640000000  0.5408570000000 1.0
C      1  0.4336770000000  0.5224620000000  0.5406230000000 1.0
C      1  0.5527670000000  0.5463910000000  0.5413270000000 1.0
C      1  0.5246260000000  0.5404710000000  0.5649100000000 1.0
C      1  0.5245800000000  0.4584690000000  0.5644470000000 1.0
C      1  0.4543000000000  0.4986290000000  0.5613760000000 1.0
C      1  0.4519580000000  0.4598730000000  0.4928600000000 1.0
C      1  0.4888130000000  0.5609360000000  0.4934250000000 1.0
C      1  0.5586640000000  0.4784760000000  0.4933160000000 1.0
C      1  0.4546360000000  0.5281730000000  0.4743570000000 1.0
C      1  0.5470090000000  0.5249860000000  0.4747550000000 1.0
C      1  0.4982870000000  0.4467740000000  0.4743070000000 1.0
C      1  0.4704260000000  0.4817960000000  0.4744160000000 1.0
C      1  0.4989040000000  0.5341910000000  0.4751910000000 1.0
C      1  0.5304480000000  0.4834870000000  0.4750030000000 1.0
C      1  0.4738020000000  0.5068430000000  0.4235880000000 1.0
C      1  0.5190790000000  0.5191140000000  0.4237670000000 1.0
C      1  0.5071530000000  0.4739040000000  0.4235450000000 1.0
C      1  0.5396500000000  0.5180570000000  0.5700560000000 1.0
C      1  0.4978660000000  0.4561290000000  0.5688310000000 1.0
C      1  0.4653600000000  0.5293340000000  0.5668850000000 1.0
C      1  0.4859220000000  0.5364450000000  0.5122000000000 1.0
C      1  0.5402190000000  0.4931650000000  0.5117030000000 1.0
C      1  0.4734280000000  0.4682460000000  0.5107380000000 1.0
C      1  0.5565630000000  0.5193010000000  0.4643960000000 1.0
C      1  0.4885290000000  0.4413430000000  0.4639840000000 1.0
C      1  0.4549810000000  0.5393390000000  0.4641730000000 1.0
C      1  0.5214120000000  0.5275560000000  0.5378510000000 1.0
C      1  0.5100990000000  0.4700940000000  0.5369220000000 1.0
C      1  0.4644430000000  0.5037270000000  0.5378330000000 1.0
C      1  0.5413510000000  0.5104430000000  0.5312820000000 1.0
C      1  0.4886490000000  0.4591580000000  0.5303540000000 1.0
C      1  0.4708530000000  0.5290980000000  0.5324230000000 1.0
C      1  0.5156560000000  0.4838400000000  0.5374270000000 1.0
C      1  0.4765580000000  0.4941620000000  0.5375450000000 1.0
C      1  0.5071420000000  0.5219070000000  0.5378700000000 1.0
C      1  0.5297190000000  0.5462050000000  0.5003010000000 1.0
C      1  0.5255030000000  0.4510320000000  0.5001880000000 1.0
C      1  0.4448350000000  0.5029160000000  0.5001690000000 1.0
C      1  0.4846650000000  0.5161850000000  0.4717460000000 1.0
C      1  0.5218070000000  0.5050270000000  0.4717660000000 1.0
C      1  0.4935510000000  0.4786300000000  0.4710290000000 1.0
C      1  0.5044550000000  0.5889560000000  0.4938280000000 1.0
C      1  0.5755300000000  0.4511830000000  0.4931920000000 1.0
C      1  0.4200070000000  0.4589040000000  0.4931880000000 1.0
C      1  0.4464250000000  0.4651220000000  0.5477020000000 1.0
C      1  0.4975200000000  0.5634190000000  0.5483430000000 1.0
C      1  0.5574000000000  0.4698180000000  0.5477750000000 1.0
C      1  0.4977380000000  0.5138850000000  0.4157390000000 1.0
C      1  0.5132150000000  0.4950100000000  0.4156190000000 1.0
C      1  0.4891020000000  0.4910490000000  0.4155810000000 1.0
C      1  0.5056290000000  0.5430060000000  0.4260720000000 1.0
C      1  0.5346060000000  0.4737380000000  0.4259150000000 1.0
C      1  0.4597690000000  0.4831650000000  0.4255090000000 1.0
C      1  0.4486320000000  0.5129420000000  0.4452540000000 1.0
C      1  0.5368010000000  0.5378020000000  0.4456290000000 1.0
C      1  0.5144960000000  0.4491940000000  0.4452730000000 1.0
C      1  0.4469850000000  0.5718300000000  0.4781400000000 1.0
C      1  0.5881280000000  0.5099360000000  0.4791780000000 1.0
C      1  0.4647110000000  0.4187070000000  0.4789190000000 1.0
C      1  0.4777450000000  0.4318750000000  0.4655380000000 1.0
C      1  0.4521180000000  0.5534460000000  0.4654100000000 1.0
C      1  0.5701770000000  0.5147430000000  0.4658670000000 1.0
C      1  0.5118990000000  0.5312470000000  0.4214800000000 1.0
C      1  0.5212830000000  0.4741300000000  0.4213130000000 1.0
C      1  0.4668980000000  0.4945360000000  0.4210990000000 1.0
C      1  0.5546880000000  0.4576410000000  0.5069000000000 1.0
C      1  0.4359660000000  0.4737740000000  0.5066800000000 1.0
C      1  0.5086860000000  0.5675830000000  0.5076330000000 1.0
C      1  0.4957360000000  0.4665900000000  0.5789870000000 1.0
C      1  0.4743350000000  0.5250340000000  0.5771540000000 1.0
C      1  0.5319220000000  0.5096620000000  0.5790470000000 1.0
C      1  0.4728220000000  0.5380170000000  0.5204960000000 1.0
C      1  0.5490740000000  0.5044540000000  0.5186640000000 1.0
C      1  0.4792340000000  0.4551520000000  0.5179060000000 1.0
C      1  0.5572780000000  0.5488970000000  0.4813630000000 1.0
C      1  0.5138870000000  0.4260060000000  0.4810450000000 1.0
C      1  0.4289550000000  0.5254170000000  0.4811700000000 1.0
C      1  0.4547080000000  0.4216470000000  0.4996230000000 1.0
C      1  0.4544950000000  0.5784730000000  0.4988810000000 1.0
C      1  0.5903500000000  0.4996620000000  0.4998440000000 1.0
C      1  0.4630780000000  0.4286750000000  0.5253130000000 1.0
C      1  0.4569940000000  0.5679300000000  0.5241470000000 1.0
C      1  0.5802600000000  0.5031180000000  0.5255310000000 1.0
C      1  0.4173660000000  0.5010130000000  0.5309570000000 1.0
C      1  0.5420730000000  0.5708930000000  0.5314620000000 1.0
C      1  0.5411300000000  0.4272930000000  0.5308020000000 1.0
C      1  0.5328630000000  0.5286170000000  0.5626700000000 1.0
C      1  0.5105170000000  0.4568580000000  0.5613640000000 1.0
C      1  0.4609880000000  0.5217100000000  0.5558190000000 1.0
C      1  0.5510030000000  0.4732370000000  0.4709840000000 1.0
C      1  0.4512590000000  0.4691280000000  0.4705440000000 1.0
C      1  0.4975900000000  0.5571080000000  0.4712590000000 1.0
C      1  0.4619830000000  0.4970470000000  0.5137380000000 1.0
C      1  0.5162970000000  0.5336710000000  0.5139510000000 1.0
C      1  0.5216030000000  0.4687890000000  0.5140850000000 1.0
C      1  0.5098040000000  0.4555550000000  0.4691670000000 1.0
C      1  0.4563570000000  0.5137640000000  0.4691730000000 1.0
C      1  0.5336240000000  0.5304990000000  0.4695510000000 1.0
C      1  0.4384260000000  0.4868240000000  0.5138790000000 1.0
C      1  0.5190630000000  0.5590790000000  0.5146900000000 1.0
C      1  0.5424290000000  0.4531430000000  0.5144020000000 1.0
C      1  0.5461330000000  0.4295410000000  0.4896110000000 1.0
C      1  0.4160170000000  0.4952420000000  0.4896850000000 1.0
C      1  0.5376280000000  0.5751080000000  0.4901960000000 1.0
C      1  0.4514560000000  0.4901560000000  0.5052370000000 1.0
C      1  0.5154210000000  0.5463220000000  0.5057620000000 1.0
C      1  0.5329600000000  0.4631200000000  0.5058260000000 1.0
C      1  0.5213100000000  0.5498020000000  0.5534310000000 1.0
C      1  0.5344170000000  0.4563170000000  0.5533870000000 1.0
C      1  0.4461110000000  0.4911510000000  0.5525000000000 1.0
C      1  0.5792970000000  0.5203550000000  0.4748850000000 1.0
C      1  0.4781110000000  0.4211860000000  0.4745620000000 1.0
C      1  0.4421620000000  0.5590050000000  0.4736560000000 1.0
C      1  0.4439770000000  0.4297730000000  0.4944360000000 1.0
C      1  0.4669250000000  0.5837180000000  0.4938820000000 1.0
C      1  0.5888300000000  0.4863240000000  0.4946260000000 1.0
C      1  0.4428250000000  0.5283420000000  0.4855580000000 1.0
C      1  0.5525400000000  0.5355030000000  0.4857320000000 1.0
C      1  0.5046690000000  0.4367900000000  0.4854440000000 1.0
C      1  0.5495240000000  0.5548230000000  0.4705610000000 1.0
C      1  0.5229060000000  0.4298010000000  0.4702480000000 1.0
C      1  0.4278190000000  0.5155020000000  0.4704410000000 1.0
C      1  0.4560130000000  0.5499510000000  0.5011920000000 1.0
C      1  0.5594260000000  0.5109830000000  0.5076900000000 1.0
C      1  0.4798840000000  0.4428190000000  0.5071010000000 1.0
C      1  0.5320090000000  0.4500080000000  0.4619350000000 1.0
C      1  0.4404540000000  0.4973510000000  0.4617980000000 1.0
C      1  0.5273940000000  0.5524390000000  0.4623860000000 1.0
C      1  0.5633990000000  0.4831610000000  0.4466040000000 1.0
C      1  0.4535930000000  0.4534670000000  0.4462280000000 1.0
C      1  0.4830710000000  0.5631740000000  0.4466810000000 1.0
C      1  0.4415320000000  0.5533390000000  0.5067200000000 1.0
C      1  0.5724080000000  0.5223500000000  0.5089820000000 1.0
C      1  0.4835240000000  0.4261870000000  0.5085540000000 1.0
C      1  0.5668090000000  0.5394100000000  0.4836140000000 1.0
C      1  0.5009030000000  0.4224780000000  0.4832710000000 1.0
C      1  0.4322240000000  0.5386720000000  0.4828810000000 1.0
C      1  0.4826510000000  0.5796040000000  0.4739610000000 1.0
C      1  0.5779440000000  0.4751100000000  0.4739390000000 1.0
C      1  0.4395310000000  0.4448260000000  0.4736720000000 1.0
C      1  0.5112650000000  0.5071890000000  0.5371040000000 1.0
C      1  0.5025080000000  0.4953020000000  0.5390610000000 1.0
C      1  0.4889230000000  0.5025790000000  0.5362510000000 1.0
C      1  0.4968440000000  0.4983560000000  0.5836960000000 1.0
C      1  0.4908900000000  0.5112040000000  0.5846220000000 1.0
C      1  0.5113650000000  0.4992450000000  0.5840620000000 1.0
C      1  0.4732690000000  0.4570800000000  0.4791320000000 1.0
C      1  0.4762900000000  0.5441830000000  0.4795880000000 1.0
C      1  0.5505290000000  0.4982210000000  0.4796960000000 1.0
C      1  0.5805330000000  0.5228490000000  0.4974730000000 1.0
C      1  0.4797610000000  0.4187990000000  0.4971150000000 1.0
C      1  0.4367290000000  0.5603860000000  0.4957380000000 1.0
C      1  0.5243020000000  0.4332530000000  0.5503370000000 1.0
C      1  0.4326920000000  0.5124250000000  0.5496380000000 1.0
C      1  0.5463920000000  0.5539370000000  0.5506900000000 1.0
C      1  0.5003480000000  0.5419710000000  0.5492000000000 1.0
C      1  0.5371350000000  0.4786860000000  0.5500480000000 1.0
C      1  0.4640540000000  0.4779580000000  0.5496840000000 1.0
C      1  0.5245300000000  0.5226730000000  0.5521120000000 1.0
C      1  0.5082910000000  0.4671060000000  0.5513640000000 1.0
C      1  0.4633020000000  0.5076340000000  0.5536270000000 1.0
C      1  0.5893350000000  0.5116370000000  0.4930380000000 1.0
C      1  0.4656390000000  0.4166990000000  0.4927540000000 1.0
C      1  0.4438060000000  0.5730760000000  0.4917730000000 1.0
C      1  0.5199560000000  0.4732960000000  0.4547860000000 1.0
C      1  0.4667000000000  0.4960530000000  0.4544230000000 1.0
C      1  0.5131720000000  0.5304060000000  0.4550320000000 1.0
C      1  0.4877390000000  0.4186420000000  0.4848340000000 1.0
C      1  0.4342970000000  0.5523710000000  0.4835410000000 1.0
C      1  0.5767030000000  0.5299110000000  0.4852110000000 1.0
C      1  0.4700340000000  0.5645290000000  0.5291850000000 1.0
C      1  0.5719840000000  0.4926080000000  0.5305530000000 1.0
C      1  0.4581660000000  0.4410690000000  0.5303960000000 1.0
C      1  0.4942640000000  0.4423050000000  0.4370420000000 1.0
C      1  0.4530380000000  0.5339060000000  0.4373050000000 1.0
C      1  0.5528400000000  0.5237390000000  0.4374160000000 1.0
C      1  0.5388660000000  0.4854100000000  0.4179930000000 1.0
C      1  0.4678540000000  0.4736800000000  0.4176710000000 1.0
C      1  0.4934280000000  0.5409230000000  0.4180710000000 1.0
C      1  0.5264290000000  0.4970730000000  0.4485820000000 1.0
C      1  0.4842080000000  0.4785450000000  0.4480470000000 1.0
C      1  0.4892260000000  0.5241470000000  0.4485770000000 1.0
C      1  0.5647940000000  0.4817210000000  0.4716140000000 1.0
C      1  0.4517860000000  0.4529350000000  0.4711960000000 1.0
C      1  0.4833990000000  0.5648630000000  0.4717120000000 1.0
C      1  0.5113330000000  0.5487110000000  0.4914370000000 1.0
C      1  0.5368170000000  0.4653500000000  0.4912830000000 1.0
C      1  0.4515840000000  0.4852700000000  0.4908430000000 1.0
C      1  0.4668530000000  0.5386140000000  0.4562590000000 1.0
C      1  0.5501900000000  0.5093460000000  0.4563630000000 1.0
C      1  0.4830290000000  0.4517830000000  0.4558960000000 1.0
C      1  0.4307550000000  0.5009750000000  0.4714370000000 1.0
C      1  0.5354650000000  0.5592070000000  0.4718040000000 1.0
C      1  0.5338050000000  0.4397210000000  0.4714550000000 1.0
C      1  0.5223440000000  0.5014010000000  0.4954200000000 1.0
C      1  0.4898350000000  0.4799730000000  0.4942800000000 1.0
C      1  0.4874180000000  0.5179200000000  0.4954080000000 1.0
C      1  0.5367490000000  0.4980890000000  0.5398820000000 1.0
C      1  0.4813570000000  0.4697090000000  0.5391410000000 1.0
C      1  0.4835540000000  0.5310320000000  0.5399770000000 1.0
C      1  0.5196610000000  0.5059960000000  0.5220530000000 1.0
C      1  0.4940970000000  0.4787730000000  0.5180700000000 1.0
C      1  0.4852990000000  0.5120470000000  0.5224810000000 1.0
C      1  0.4830610000000  0.5580030000000  0.5491570000000 1.0
C      1  0.5596820000000  0.4842780000000  0.5482000000000 1.0
C      1  0.4580920000000  0.4561390000000  0.5476790000000 1.0
C      1  0.5077600000000  0.4441490000000  0.5359320000000 1.0
C      1  0.4474250000000  0.5237360000000  0.5361110000000 1.0
C      1  0.5459410000000  0.5340240000000  0.5364070000000 1.0
C      1  0.5263860000000  0.4920340000000  0.5180970000000 1.0
C      1  0.4794280000000  0.4808560000000  0.5167320000000 1.0
C      1  0.4940510000000  0.5250370000000  0.5180900000000 1.0
C      1  0.4405940000000  0.4688500000000  0.5336190000000 1.0
C      1  0.5024750000000  0.5659180000000  0.5339630000000 1.0
C      1  0.5571050000000  0.4636430000000  0.5335770000000 1.0
C      1  0.4611170000000  0.4611970000000  0.4363080000000 1.0
C      1  0.4859810000000  0.5527810000000  0.4367870000000 1.0
C      1  0.5528940000000  0.4858860000000  0.4367350000000 1.0
C      1  0.4375410000000  0.4503290000000  0.5117950000000 1.0
C      1  0.4876550000000  0.5781590000000  0.5119040000000 1.0
C      1  0.5741780000000  0.4705240000000  0.5119920000000 1.0
C      1  0.4469920000000  0.4625000000000  0.5063790000000 1.0
C      1  0.4931830000000  0.5635050000000  0.5070710000000 1.0
C      1  0.5587810000000  0.4728800000000  0.5068200000000 1.0
C      1  0.5163120000000  0.5747270000000  0.4763830000000 1.0
C      1  0.5569630000000  0.4482500000000  0.4759280000000 1.0
C      1  0.4266670000000  0.4765270000000  0.4757970000000 1.0
C      1  0.5002920000000  0.5773850000000  0.4590840000000 1.0
C      1  0.5672450000000  0.4610320000000  0.4587210000000 1.0
C      1  0.4325360000000  0.4612190000000  0.4585410000000 1.0
C      1  0.4618040000000  0.5639680000000  0.4631220000000 1.0
C      1  0.5746780000000  0.5010930000000  0.4634940000000 1.0
C      1  0.4636480000000  0.4347220000000  0.4631660000000 1.0
C      1  0.4337250000000  0.4988960000000  0.5494780000000 1.0
C      1  0.5332490000000  0.5578570000000  0.5499910000000 1.0
C      1  0.5350720000000  0.4415880000000  0.5501030000000 1.0
C      1  0.4288880000000  0.4534500000000  0.4703580000000 1.0
C      1  0.4954330000000  0.5845270000000  0.4708170000000 1.0
C      1  0.5758610000000  0.4616270000000  0.4704510000000 1.0
C      1  0.4226590000000  0.4670390000000  0.5058000000000 1.0
C      1  0.5097690000000  0.5824420000000  0.5063780000000 1.0
C      1  0.5671820000000  0.4494150000000  0.5056880000000 1.0
C      1  0.5168900000000  0.4816350000000  0.5090320000000 1.0
C      1  0.4753810000000  0.4944320000000  0.5083430000000 1.0
C      1  0.5076090000000  0.5228950000000  0.5090630000000 1.0
C      1  0.5268560000000  0.4986100000000  0.5519190000000 1.0
C      1  0.4874430000000  0.4796350000000  0.5497960000000 1.0
C      1  0.4882350000000  0.5220150000000  0.5510400000000 1.0
C      1  0.4772550000000  0.5115790000000  0.5809600000000 1.0
C      1  0.5181240000000  0.5120790000000  0.5817670000000 1.0
C      1  0.5073560000000  0.4700200000000  0.5850790000000 1.0
C      1  0.5188790000000  0.5628520000000  0.4428520000000 1.0
C      1  0.5453840000000  0.4521740000000  0.4423830000000 1.0
C      1  0.4358750000000  0.4846750000000  0.4421990000000 1.0
C      1  0.5326070000000  0.5035870000000  0.4378640000000 1.0
C      1  0.4868030000000  0.4698500000000  0.4373960000000 1.0
C      1  0.4805300000000  0.5262490000000  0.4378150000000 1.0
C      1  0.5594220000000  0.5354390000000  0.4392380000000 1.0
C      1  0.5011360000000  0.4307790000000  0.4389000000000 1.0
C      1  0.4396170000000  0.5339270000000  0.4392700000000 1.0
C      1  0.5136290000000  0.5389250000000  0.5736480000000 1.0
C      1  0.5294250000000  0.4677320000000  0.5741440000000 1.0
C      1  0.4609080000000  0.4917540000000  0.5717890000000 1.0
C      1  0.4880190000000  0.4549880000000  0.4838920000000 1.0
C      1  0.4669180000000  0.5328210000000  0.4841170000000 1.0
C      1  0.5450260000000  0.5119980000000  0.4844160000000 1.0
C      1  0.5107190000000  0.5173480000000  0.4608870000000 1.0
C      1  0.5098200000000  0.4819340000000  0.4605930000000 1.0
C      1  0.4792120000000  0.5003900000000  0.4602900000000 1.0
C      1  0.5415540000000  0.4400250000000  0.5373680000000 1.0
C      1  0.4286180000000  0.4945260000000  0.5369490000000 1.0
C      1  0.5308580000000  0.5641670000000  0.5375160000000 1.0
C      1  0.5288990000000  0.5178520000000  0.5260990000000 1.0
C      1  0.5003400000000  0.4670240000000  0.5250230000000 1.0
C      1  0.4700160000000  0.5148780000000  0.5267520000000 1.0
C      1  0.5105170000000  0.4551540000000  0.5010700000000 1.0
C      1  0.4557540000000  0.5137810000000  0.5013280000000 1.0
C      1  0.5338040000000  0.5313450000000  0.5014110000000 1.0
C      1  0.5040360000000  0.4532830000000  0.4368750000000 1.0
C      1  0.4575080000000  0.5199310000000  0.4369490000000 1.0
C      1  0.5384540000000  0.5267230000000  0.4371900000000 1.0
C      1  0.4697800000000  0.5823770000000  0.4795820000000 1.0
C      1  0.5865260000000  0.4848000000000  0.4801470000000 1.0
C      1  0.4437060000000  0.4325770000000  0.4799490000000 1.0
C      1  0.4191750000000  0.5137830000000  0.5232160000000 1.0
C      1  0.5521720000000  0.5630330000000  0.5237610000000 1.0
C      1  0.5288690000000  0.4229400000000  0.5233150000000 1.0
C      1  0.5298050000000  0.5705390000000  0.4796140000000 1.0
C      1  0.5464600000000  0.4387360000000  0.4791490000000 1.0
C      1  0.4236600000000  0.4903960000000  0.4790990000000 1.0
C      1  0.5828030000000  0.4818270000000  0.5075900000000 1.0
C      1  0.4432120000000  0.4372620000000  0.5074060000000 1.0
C      1  0.4737540000000  0.5806720000000  0.5068990000000 1.0
C      1  0.4983820000000  0.5534350000000  0.4863270000000 1.0
C      1  0.5474060000000  0.4741790000000  0.4860420000000 1.0
C      1  0.4539550000000  0.4717650000000  0.4855980000000 1.0
C      1  0.4578230000000  0.5434940000000  0.5505220000000 1.0
C      1  0.5565550000000  0.5156340000000  0.5510840000000 1.0
C      1  0.4864290000000  0.4432730000000  0.5501990000000 1.0
C      1  0.4851500000000  0.4923410000000  0.4869480000000 1.0
C      1  0.5005630000000  0.5158030000000  0.4877440000000 1.0
C      1  0.5139840000000  0.4912250000000  0.4875960000000 1.0
C      1  0.5634900000000  0.4689440000000  0.4477290000000 1.0
C      1  0.4412360000000  0.4605260000000  0.4474860000000 1.0
C      1  0.4953590000000  0.5703040000000  0.4479890000000 1.0
C      1  0.4821560000000  0.5471250000000  0.4238300000000 1.0
C      1  0.5498710000000  0.4920580000000  0.4237420000000 1.0
C      1  0.4680760000000  0.4607690000000  0.4234310000000 1.0
C      1  0.5222670000000  0.4849950000000  0.5518930000000 1.0
C      1  0.4757750000000  0.4881470000000  0.5513220000000 1.0
C      1  0.5020670000000  0.5262590000000  0.5517070000000 1.0
C      1  0.4436060000000  0.4736180000000  0.4412530000000 1.0
C      1  0.5054700000000  0.5616710000000  0.4418120000000 1.0
C      1  0.5509460000000  0.4644650000000  0.4415220000000 1.0
C      1  0.4703740000000  0.5615010000000  0.5426540000000 1.0
C      1  0.5686360000000  0.4944500000000  0.5438110000000 1.0
C      1  0.4619720000000  0.4431500000000  0.5435170000000 1.0
C      1  0.4833550000000  0.5140290000000  0.4581720000000 1.0
C      1  0.5205750000000  0.5071690000000  0.4582040000000 1.0
C      1  0.4960900000000  0.4785810000000  0.4575220000000 1.0
C      1  0.4599490000000  0.4485530000000  0.4594860000000 1.0
C      1  0.4756370000000  0.5600590000000  0.4598810000000 1.0
C      1  0.5644910000000  0.4910090000000  0.4599090000000 1.0
C      1  0.5342590000000  0.5822150000000  0.5299530000000 1.0
C      1  0.5549130000000  0.4278110000000  0.5289620000000 1.0
C      1  0.4111710000000  0.4887400000000  0.5291400000000 1.0
C      1  0.4608660000000  0.4800470000000  0.5347470000000 1.0
C      1  0.5032100000000  0.5427970000000  0.5345690000000 1.0
C      1  0.5363840000000  0.4749360000000  0.5354010000000 1.0
C      1  0.4970670000000  0.5233940000000  0.5819810000000 1.0
C      1  0.5217170000000  0.4891250000000  0.5841430000000 1.0
C      1  0.4855430000000  0.4895940000000  0.5801100000000 1.0
C      1  0.4797700000000  0.5479640000000  0.5617900000000 1.0
C      1  0.5490500000000  0.4964150000000  0.5630870000000 1.0
C      1  0.4751650000000  0.4605060000000  0.5627130000000 1.0
C      1  0.4865820000000  0.5057150000000  0.5087380000000 1.0
C      1  0.5122370000000  0.5079400000000  0.5088540000000 1.0
C      1  0.5010050000000  0.4851720000000  0.5075720000000 1.0
C      1  0.5264340000000  0.4706160000000  0.4828660000000 1.0
C      1  0.4613780000000  0.4917750000000  0.4825980000000 1.0
C      1  0.5120430000000  0.5370720000000  0.4830620000000 1.0
C      1  0.5590900000000  0.5515560000000  0.5292920000000 1.0
C      1  0.5156090000000  0.4232750000000  0.5290250000000 1.0
C      1  0.4257220000000  0.5254500000000  0.5287260000000 1.0
C      1  0.4888140000000  0.5522540000000  0.5161560000000 1.0
C      1  0.5514100000000  0.4821220000000  0.5163810000000 1.0
C      1  0.4586580000000  0.4640220000000  0.5157340000000 1.0
C      1  0.4989670000000  0.5282100000000  0.4146280000000 1.0
C      1  0.5250720000000  0.4868810000000  0.4145120000000 1.0
C      1  0.4761090000000  0.4849000000000  0.4143680000000 1.0
C      1  0.5322340000000  0.4282820000000  0.5100760000000 1.0
C      1  0.4219130000000  0.5081970000000  0.5099640000000 1.0
C      1  0.5457120000000  0.5634710000000  0.5105660000000 1.0
C      1  0.4125700000000  0.4762440000000  0.5262370000000 1.0
C      1  0.5227430000000  0.5872070000000  0.5268840000000 1.0
C      1  0.5646900000000  0.4357390000000  0.5259460000000 1.0
C      1  0.4987360000000  0.5782430000000  0.5259480000000 1.0
C      1  0.5693710000000  0.4610030000000  0.5253260000000 1.0
C      1  0.4319640000000  0.4596020000000  0.5254510000000 1.0
C      1  0.4998720000000  0.4659390000000  0.4323850000000 1.0
C      1  0.4705750000000  0.5170480000000  0.4325670000000 1.0
C      1  0.5295370000000  0.5168060000000  0.4327040000000 1.0
C      1  0.4772080000000  0.4722260000000  0.4973080000000 1.0
C      1  0.4871340000000  0.5324770000000  0.4983900000000 1.0
C      1  0.5352480000000  0.4941810000000  0.4981530000000 1.0
C      1  0.5625200000000  0.4901750000000  0.4847400000000 1.0
C      1  0.4602940000000  0.4507340000000  0.4843050000000 1.0
C      1  0.4769750000000  0.5585800000000  0.4846080000000 1.0
C      1  0.4639840000000  0.4507640000000  0.5198550000000 1.0
C      1  0.4737380000000  0.5532340000000  0.5190110000000 1.0
C      1  0.5604170000000  0.4932080000000  0.5203690000000 1.0
C      1  0.4883140000000  0.4236580000000  0.5219400000000 1.0
C      1  0.4391300000000  0.5495300000000  0.5205820000000 1.0
C      1  0.5722180000000  0.5275320000000  0.5224050000000 1.0
C      1  0.5540510000000  0.5104210000000  0.4424280000000 1.0
C      1  0.4820540000000  0.4478980000000  0.4419490000000 1.0
C      1  0.4640460000000  0.5415170000000  0.4423210000000 1.0
C      1  0.4579090000000  0.5054130000000  0.4797250000000 1.0
C      1  0.5254220000000  0.5332100000000  0.4800170000000 1.0
C      1  0.5162720000000  0.4611420000000  0.4797180000000 1.0
C      1  0.4886050000000  0.4465160000000  0.4962670000000 1.0
C      1  0.4589240000000  0.5372140000000  0.4962440000000 1.0
C      1  0.5520190000000  0.5166960000000  0.4967600000000 1.0
C      1  0.4554720000000  0.4273880000000  0.4725600000000 1.0
C      1  0.4595210000000  0.5748720000000  0.4722320000000 1.0
C      1  0.5851510000000  0.4976160000000  0.4728150000000 1.0
C      1  0.5106530000000  0.5236170000000  0.5760190000000 1.0
C      1  0.5199060000000  0.4747600000000  0.5829070000000 1.0
C      1  0.4745240000000  0.4983710000000  0.5745000000000 1.0
C      1  0.5485450000000  0.5306520000000  0.4995880000000 1.0
C      1  0.5024710000000  0.4427500000000  0.4993250000000 1.0
C      1  0.4490370000000  0.5270030000000  0.4995820000000 1.0
C      1  0.5286760000000  0.4871040000000  0.5313720000000 1.0
C      1  0.4748500000000  0.4811360000000  0.5305160000000 1.0
C      1  0.4967960000000  0.5299460000000  0.5311060000000 1.0
C      1  0.4761410000000  0.5192160000000  0.4850540000000 1.0
C      1  0.5285990000000  0.5107500000000  0.4850910000000 1.0
C      1  0.4951930000000  0.4698900000000  0.4843480000000 1.0
C      1  0.4659930000000  0.5099140000000  0.4907440000000 1.0
C      1  0.5253050000000  0.5240530000000  0.4910290000000 1.0
C      1  0.5083870000000  0.4660020000000  0.4906310000000 1.0
C      1  0.5416650000000  0.5360350000000  0.5225480000000 1.0
C      1  0.5111520000000  0.4462900000000  0.5220730000000 1.0
C      1  0.4485320000000  0.5191490000000  0.5224680000000 1.0
C      1  0.4717520000000  0.4583220000000  0.4634880000000 1.0
C      1  0.4781100000000  0.5449260000000  0.4640170000000 1.0
C      1  0.5501410000000  0.4963440000000  0.4640150000000 1.0
C      1  0.4230530000000  0.4630380000000  0.4799670000000 1.0
C      1  0.5065340000000  0.5846020000000  0.4805190000000 1.0
C      1  0.5704790000000  0.4517630000000  0.4799880000000 1.0
C      1  0.5175600000000  0.4911190000000  0.4731040000000 1.0
C      1  0.4834490000000  0.4892270000000  0.4724270000000 1.0
C      1  0.4988530000000  0.5192290000000  0.4732310000000 1.0
C      1  0.4719750000000  0.4704240000000  0.5721590000000 1.0
C      1  0.4893620000000  0.5446970000000  0.5721750000000 1.0
C      1  0.5435870000000  0.4880480000000  0.5729910000000 1.0
C      1  0.5058050000000  0.4364920000000  0.5132720000000 1.0
C      1  0.4421460000000  0.5275050000000  0.5132920000000 1.0
C      1  0.5525090000000  0.5366380000000  0.5134810000000 1.0
C      1  0.4258290000000  0.4521220000000  0.5030880000000 1.0
C      1  0.4951570000000  0.5871400000000  0.5032110000000 1.0
C      1  0.5784270000000  0.4598050000000  0.5029190000000 1.0
C      1  0.4367830000000  0.4855940000000  0.4556470000000 1.0
C      1  0.5190450000000  0.5614790000000  0.4562870000000 1.0
C      1  0.5440490000000  0.4526250000000  0.4558270000000 1.0
C      1  0.5101100000000  0.5245140000000  0.4942230000000 1.0
C      1  0.5165640000000  0.4786220000000  0.4941200000000 1.0
C      1  0.4727760000000  0.4961790000000  0.4934310000000 1.0
C      1  0.4582080000000  0.4760000000000  0.4387120000000 1.0
C      1  0.5001890000000  0.5478240000000  0.4392930000000 1.0
C      1  0.5415390000000  0.4759510000000  0.4391160000000 1.0
C      1  0.5178200000000  0.5086500000000  0.5513780000000 1.0
C      1  0.4987580000000  0.4877420000000  0.5519450000000 1.0
C      1  0.4870510000000  0.5084380000000  0.5507990000000 1.0
C      1  0.5484200000000  0.5207220000000  0.5399730000000 1.0
C      1  0.4946870000000  0.4481710000000  0.5390750000000 1.0
C      1  0.4584520000000  0.5297570000000  0.5436200000000 1.0
C      1  0.5190730000000  0.4569890000000  0.4571150000000 1.0
C      1  0.4530340000000  0.5050270000000  0.4570510000000 1.0
C      1  0.5277930000000  0.5377770000000  0.4574920000000 1.0
C      1  0.4862160000000  0.4514350000000  0.5623110000000 1.0
C      1  0.4661480000000  0.5428310000000  0.5621740000000 1.0
C      1  0.5500130000000  0.5108280000000  0.5631440000000 1.0
C      1  0.4940340000000  0.5433890000000  0.4639830000000 1.0
C      1  0.5408760000000  0.4832570000000  0.4638130000000 1.0
C      1  0.4649870000000  0.4729080000000  0.4632820000000 1.0
C      1  0.5179010000000  0.4283140000000  0.4576360000000 1.0
C      1  0.4290230000000  0.5205360000000  0.4578120000000 1.0
C      1  0.5532860000000  0.5512030000000  0.4579460000000 1.0
C      1  0.4760390000000  0.5404810000000  0.4346270000000 1.0
C      1  0.5472220000000  0.5004980000000  0.4347230000000 1.0
C      1  0.4768510000000  0.4587750000000  0.4342500000000 1.0
C      1  0.4701140000000  0.4643210000000  0.5494200000000 1.0
C      1  0.4859200000000  0.5436140000000  0.5483700000000 1.0
C      1  0.5467240000000  0.4904400000000  0.5497190000000 1.0
C      1  0.4999690000000  0.4996690000000  0.5078500000000 1.0
END
