TITL C-3052148-2842-87 125.811031321363 1000000 -3680.71613451978 0 0 520 (C1) n - 1
REM
REM in /scratch/bkarasulu/Only-C240
REM
REM
REM
REM
REM
REM ./C.cell (db1db5b03a21c153a00b653f6831bbfd)
REM
REM compiler GCC version 9.2.1 20190827 (Red Hat 9.2.1-1)
REM options -cpp -mtune=generic -march=x86-64 -g -O0 -fpre-include=/usr/include/finclude/math-vector-fortran.h
REM seed -918291737 -62809936 -727554918 1778783633 -1544669728 -1230755457 -817709440 -677596252 1016465816 -2094742594 -710633769 2015208923 981766566 664123302 -1058836683 2089383103 -1117148783 1049248385 -1874190248 -1310958226 -1335887073 -1489588968 890197479 -1424215197 -1959691254 -668311006 -434452553 1683511862 -1231605287 -46668138 302541300 -699277410 443152939
REM
CELL 1.54180  100.00000  100.00000  100.00000   90.00000   90.00000   90.00000
LATT -1
SFAC C  
C      1  0.4958110000000  0.4975230000000  0.5589760000000 1.0
C      1  0.4956870000000  0.4498190000000  0.4671950000000 1.0
C      1  0.4957040000000  0.5523090000000  0.4724700000000 1.0
C      1  0.5104840000000  0.4322310000000  0.5373110000000 1.0
C      1  0.5121650000000  0.5006830000000  0.4234970000000 1.0
C      1  0.5105610000000  0.5669700000000  0.5405660000000 1.0
C      1  0.5362850000000  0.5762510000000  0.5116980000000 1.0
C      1  0.5383730000000  0.4508490000000  0.5573940000000 1.0
C      1  0.5388650000000  0.4739850000000  0.4294710000000 1.0
C      1  0.5446880000000  0.4695250000000  0.5074390000000 1.0
C      1  0.5442820000000  0.5075160000000  0.4728010000000 1.0
C      1  0.5432320000000  0.5239680000000  0.5209530000000 1.0
C      1  0.4901520000000  0.4455400000000  0.4431430000000 1.0
C      1  0.4891390000000  0.5746200000000  0.4810560000000 1.0
C      1  0.4900470000000  0.4784130000000  0.5736720000000 1.0
C      1  0.4944070000000  0.5178960000000  0.4671890000000 1.0
C      1  0.4929690000000  0.5208700000000  0.5329540000000 1.0
C      1  0.4929990000000  0.4617700000000  0.5015420000000 1.0
C      1  0.4944500000000  0.4547480000000  0.5740430000000 1.0
C      1  0.4945900000000  0.4578470000000  0.4232960000000 1.0
C      1  0.4917930000000  0.5862530000000  0.5016110000000 1.0
C      1  0.4370040000000  0.5136220000000  0.4530380000000 1.0
C      1  0.4357820000000  0.5327430000000  0.5356010000000 1.0
C      1  0.4395200000000  0.4511790000000  0.5104530000000 1.0
C      1  0.5051570000000  0.5272630000000  0.4669490000000 1.0
C      1  0.5040960000000  0.5157090000000  0.5404370000000 1.0
C      1  0.5041710000000  0.4577550000000  0.4934860000000 1.0
C      1  0.4566620000000  0.5437320000000  0.5049670000000 1.0
C      1  0.4572360000000  0.4734880000000  0.5358540000000 1.0
C      1  0.4583730000000  0.4817030000000  0.4592050000000 1.0
C      1  0.4701300000000  0.4115650000000  0.4847730000000 1.0
C      1  0.4709030000000  0.5594580000000  0.4311650000000 1.0
C      1  0.4699510000000  0.5288490000000  0.5871110000000 1.0
C      1  0.5493950000000  0.4273690000000  0.4899960000000 1.0
C      1  0.5521230000000  0.5427220000000  0.4441210000000 1.0
C      1  0.5510010000000  0.5269920000000  0.5653660000000 1.0
C      1  0.4802600000000  0.5281370000000  0.5087740000000 1.0
C      1  0.4813340000000  0.4791370000000  0.5194840000000 1.0
C      1  0.4819430000000  0.4938340000000  0.4724140000000 1.0
C      1  0.5404410000000  0.5268440000000  0.5753600000000 1.0
C      1  0.5381140000000  0.4195590000000  0.4856030000000 1.0
C      1  0.5413590000000  0.5509320000000  0.4391170000000 1.0
C      1  0.5404410000000  0.4838840000000  0.4711930000000 1.0
C      1  0.5379920000000  0.5338090000000  0.5002460000000 1.0
C      1  0.5399580000000  0.4814370000000  0.5279720000000 1.0
C      1  0.4296610000000  0.4850300000000  0.5066490000000 1.0
C      1  0.4295080000000  0.5002030000000  0.4843730000000 1.0
C      1  0.4290890000000  0.5119420000000  0.5083740000000 1.0
C      1  0.4819110000000  0.5149630000000  0.5413090000000 1.0
C      1  0.4821490000000  0.4572540000000  0.4921540000000 1.0
C      1  0.4828600000000  0.5278560000000  0.4671400000000 1.0
C      1  0.4932030000000  0.5233750000000  0.5043590000000 1.0
C      1  0.4937930000000  0.4862920000000  0.5185720000000 1.0
C      1  0.4944850000000  0.4939150000000  0.4798500000000 1.0
C      1  0.4461160000000  0.5482260000000  0.4826180000000 1.0
C      1  0.4463860000000  0.4901100000000  0.5508200000000 1.0
C      1  0.4473090000000  0.4606460000000  0.4661280000000 1.0
C      1  0.5284320000000  0.4877670000000  0.4107190000000 1.0
C      1  0.5259980000000  0.5838510000000  0.5339130000000 1.0
C      1  0.5266680000000  0.4284530000000  0.5548400000000 1.0
C      1  0.5003500000000  0.4853130000000  0.4574100000000 1.0
C      1  0.4959350000000  0.5448610000000  0.5129160000000 1.0
C      1  0.4964860000000  0.4672790000000  0.5317870000000 1.0
C      1  0.4588610000000  0.5625460000000  0.4375260000000 1.0
C      1  0.4580710000000  0.5215200000000  0.5865830000000 1.0
C      1  0.4594720000000  0.4145890000000  0.4768490000000 1.0
C      1  0.4953330000000  0.4136200000000  0.5390980000000 1.0
C      1  0.4971400000000  0.5093980000000  0.4068320000000 1.0
C      1  0.4955210000000  0.5760050000000  0.5569300000000 1.0
C      1  0.4687910000000  0.5180140000000  0.5105870000000 1.0
C      1  0.4693550000000  0.4823820000000  0.5103010000000 1.0
C      1  0.4697830000000  0.5001920000000  0.4794730000000 1.0
C      1  0.5009230000000  0.4432890000000  0.4896890000000 1.0
C      1  0.5018230000000  0.5367030000000  0.4558020000000 1.0
C      1  0.5011330000000  0.5199970000000  0.5545480000000 1.0
C      1  0.5411140000000  0.4676640000000  0.5225950000000 1.0
C      1  0.5415600000000  0.4954390000000  0.4624040000000 1.0
C      1  0.5397090000000  0.5374790000000  0.5145200000000 1.0
C      1  0.5535470000000  0.4352360000000  0.4785000000000 1.0
C      1  0.5562850000000  0.5484350000000  0.4567700000000 1.0
C      1  0.5548640000000  0.5136990000000  0.5620930000000 1.0
C      1  0.4588970000000  0.4249890000000  0.5025650000000 1.0
C      1  0.4630610000000  0.5362620000000  0.4331150000000 1.0
C      1  0.4618370000000  0.5391610000000  0.5662680000000 1.0
C      1  0.5797980000000  0.5243840000000  0.4830430000000 1.0
C      1  0.5788730000000  0.5069280000000  0.5286560000000 1.0
C      1  0.5796740000000  0.4657460000000  0.4819280000000 1.0
C      1  0.4525960000000  0.5181510000000  0.4736670000000 1.0
C      1  0.4519690000000  0.5132390000000  0.5292230000000 1.0
C      1  0.4532050000000  0.4678830000000  0.4968570000000 1.0
C      1  0.4761740000000  0.4688990000000  0.4868830000000 1.0
C      1  0.4757740000000  0.5272570000000  0.4793930000000 1.0
C      1  0.4751070000000  0.5046810000000  0.5343310000000 1.0
C      1  0.4688900000000  0.4651470000000  0.5320050000000 1.0
C      1  0.4701060000000  0.4892580000000  0.4544200000000 1.0
C      1  0.4681640000000  0.5454260000000  0.5147320000000 1.0
C      1  0.4903440000000  0.5127450000000  0.4930410000000 1.0
C      1  0.4897250000000  0.5017940000000  0.5152910000000 1.0
C      1  0.4900680000000  0.4878430000000  0.4946950000000 1.0
C      1  0.5476080000000  0.5044970000000  0.4420510000000 1.0
C      1  0.5484090000000  0.5530490000000  0.5302460000000 1.0
C      1  0.5464740000000  0.4455560000000  0.5245050000000 1.0
C      1  0.4759350000000  0.5667900000000  0.5492720000000 1.0
C      1  0.4757310000000  0.4249830000000  0.5342340000000 1.0
C      1  0.4778650000000  0.5079640000000  0.4187570000000 1.0
C      1  0.4824060000000  0.4398340000000  0.5555670000000 1.0
C      1  0.4834040000000  0.4822360000000  0.4194940000000 1.0
C      1  0.4820040000000  0.5774170000000  0.5246540000000 1.0
C      1  0.5354880000000  0.5447170000000  0.5611540000000 1.0
C      1  0.5343560000000  0.4246530000000  0.5077720000000 1.0
C      1  0.5371460000000  0.5290780000000  0.4325280000000 1.0
C      1  0.5362640000000  0.5585770000000  0.5337750000000 1.0
C      1  0.5345650000000  0.4406060000000  0.5297350000000 1.0
C      1  0.5358710000000  0.5028780000000  0.4346780000000 1.0
C      1  0.4436640000000  0.5228300000000  0.4632550000000 1.0
C      1  0.4429410000000  0.5195720000000  0.5386650000000 1.0
C      1  0.4446360000000  0.4562700000000  0.4976250000000 1.0
C      1  0.5009020000000  0.4251700000000  0.5104770000000 1.0
C      1  0.5031860000000  0.5272150000000  0.4306390000000 1.0
C      1  0.5017610000000  0.5466260000000  0.5601970000000 1.0
C      1  0.4502760000000  0.4725550000000  0.4348660000000 1.0
C      1  0.4487230000000  0.5690510000000  0.5084770000000 1.0
C      1  0.4494940000000  0.4570860000000  0.5559460000000 1.0
C      1  0.4910540000000  0.5668440000000  0.4678980000000 1.0
C      1  0.4914030000000  0.4937030000000  0.5738020000000 1.0
C      1  0.4915930000000  0.4381280000000  0.4566140000000 1.0
C      1  0.5227520000000  0.5744490000000  0.5431470000000 1.0
C      1  0.5223570000000  0.4253560000000  0.5424550000000 1.0
C      1  0.5239830000000  0.4998240000000  0.4147460000000 1.0
C      1  0.5416600000000  0.5237440000000  0.5360570000000 1.0
C      1  0.5416250000000  0.4559870000000  0.5009820000000 1.0
C      1  0.5424870000000  0.5194830000000  0.4631900000000 1.0
C      1  0.5659990000000  0.5404700000000  0.5221140000000 1.0
C      1  0.5683030000000  0.4613670000000  0.5178320000000 1.0
C      1  0.5683700000000  0.5011730000000  0.4610960000000 1.0
C      1  0.4730560000000  0.4605520000000  0.4347580000000 1.0
C      1  0.4718010000000  0.5742770000000  0.4978550000000 1.0
C      1  0.4728300000000  0.4637800000000  0.5653840000000 1.0
C      1  0.4930890000000  0.5509940000000  0.4874380000000 1.0
C      1  0.4933350000000  0.4854500000000  0.5502480000000 1.0
C      1  0.4931230000000  0.4627470000000  0.4600840000000 1.0
C      1  0.5067750000000  0.5712800000000  0.5133610000000 1.0
C      1  0.5078380000000  0.4532430000000  0.5543370000000 1.0
C      1  0.5083790000000  0.4754310000000  0.4309320000000 1.0
C      1  0.5203720000000  0.5360890000000  0.5330510000000 1.0
C      1  0.5195530000000  0.4545320000000  0.5126380000000 1.0
C      1  0.5210950000000  0.5105310000000  0.4545090000000 1.0
C      1  0.5523120000000  0.5165900000000  0.4489450000000 1.0
C      1  0.5510230000000  0.5351640000000  0.5426350000000 1.0
C      1  0.5503710000000  0.4445600000000  0.5102390000000 1.0
C      1  0.5117370000000  0.5871360000000  0.4864720000000 1.0
C      1  0.5142960000000  0.4687200000000  0.5800240000000 1.0
C      1  0.5146050000000  0.4454150000000  0.4315010000000 1.0
C      1  0.4558080000000  0.4318430000000  0.4902900000000 1.0
C      1  0.4573800000000  0.5421420000000  0.4451310000000 1.0
C      1  0.4566170000000  0.5256430000000  0.5650900000000 1.0
C      1  0.5263800000000  0.5364740000000  0.4594720000000 1.0
C      1  0.5256830000000  0.5168640000000  0.5519060000000 1.0
C      1  0.5251740000000  0.4458480000000  0.4874510000000 1.0
C      1  0.5809380000000  0.5177320000000  0.5193600000000 1.0
C      1  0.5809340000000  0.4801170000000  0.5016190000000 1.0
C      1  0.5814570000000  0.5095320000000  0.4835380000000 1.0
C      1  0.4683030000000  0.4406860000000  0.4518360000000 1.0
C      1  0.4674610000000  0.5697690000000  0.4721430000000 1.0
C      1  0.4680030000000  0.4880720000000  0.5746740000000 1.0
C      1  0.4422320000000  0.4842440000000  0.4840160000000 1.0
C      1  0.4417080000000  0.5207240000000  0.4944520000000 1.0
C      1  0.4417210000000  0.4933200000000  0.5211940000000 1.0
C      1  0.4606850000000  0.5743600000000  0.5322670000000 1.0
C      1  0.4594810000000  0.4325930000000  0.5521000000000 1.0
C      1  0.4606210000000  0.4897230000000  0.4166020000000 1.0
C      1  0.5098380000000  0.4494450000000  0.4695970000000 1.0
C      1  0.5101440000000  0.5510950000000  0.4707650000000 1.0
C      1  0.5102460000000  0.4996820000000  0.5585610000000 1.0
C      1  0.5646330000000  0.5128130000000  0.4553200000000 1.0
C      1  0.5582640000000  0.5436890000000  0.5340510000000 1.0
C      1  0.5631800000000  0.4503310000000  0.5117130000000 1.0
C      1  0.5283260000000  0.5179280000000  0.4294230000000 1.0
C      1  0.5266300000000  0.5534160000000  0.5540260000000 1.0
C      1  0.5260630000000  0.4278480000000  0.5191520000000 1.0
C      1  0.5174160000000  0.5185380000000  0.5753010000000 1.0
C      1  0.5161090000000  0.4247230000000  0.4777870000000 1.0
C      1  0.5182610000000  0.5554610000000  0.4461610000000 1.0
C      1  0.4717730000000  0.5030840000000  0.4498670000000 1.0
C      1  0.4700910000000  0.5424430000000  0.5289980000000 1.0
C      1  0.4708820000000  0.4550300000000  0.5219500000000 1.0
C      1  0.5561810000000  0.5053900000000  0.5285270000000 1.0
C      1  0.5568060000000  0.4667940000000  0.4869450000000 1.0
C      1  0.5570450000000  0.5261090000000  0.4798340000000 1.0
C      1  0.5035800000000  0.4943070000000  0.4445640000000 1.0
C      1  0.5015190000000  0.5518330000000  0.5252290000000 1.0
C      1  0.5018050000000  0.4530710000000  0.5316930000000 1.0
C      1  0.5674800000000  0.5583600000000  0.5024880000000 1.0
C      1  0.5688680000000  0.4673400000000  0.5431380000000 1.0
C      1  0.5689280000000  0.4781940000000  0.4481670000000 1.0
C      1  0.4776800000000  0.4365940000000  0.4618500000000 1.0
C      1  0.4771670000000  0.5632260000000  0.4638630000000 1.0
C      1  0.4773770000000  0.4987240000000  0.5730930000000 1.0
C      1  0.5114700000000  0.5168600000000  0.5189050000000 1.0
C      1  0.5116030000000  0.4763080000000  0.5054950000000 1.0
C      1  0.5145390000000  0.5102320000000  0.4793090000000 1.0
C      1  0.5598890000000  0.5099740000000  0.5491720000000 1.0
C      1  0.5592480000000  0.4473040000000  0.4820310000000 1.0
C      1  0.5618020000000  0.5389810000000  0.4655740000000 1.0
C      1  0.4675030000000  0.4400820000000  0.4869990000000 1.0
C      1  0.4669000000000  0.5399580000000  0.4557000000000 1.0
C      1  0.4662980000000  0.5178610000000  0.5578170000000 1.0
C      1  0.4756740000000  0.4818130000000  0.4950790000000 1.0
C      1  0.4756410000000  0.5140210000000  0.4867250000000 1.0
C      1  0.4749640000000  0.5052050000000  0.5191980000000 1.0
C      1  0.4516880000000  0.5168450000000  0.5755680000000 1.0
C      1  0.4520780000000  0.4262070000000  0.4774010000000 1.0
C      1  0.4521850000000  0.5555880000000  0.4470740000000 1.0
C      1  0.5068190000000  0.4685670000000  0.5534000000000 1.0
C      1  0.5074030000000  0.4669780000000  0.4434100000000 1.0
C      1  0.5064100000000  0.5621900000000  0.5004230000000 1.0
C      1  0.4456520000000  0.4419580000000  0.5194150000000 1.0
C      1  0.4404420000000  0.5094240000000  0.4406730000000 1.0
C      1  0.4390250000000  0.5456790000000  0.5377790000000 1.0
C      1  0.5355700000000  0.5143820000000  0.5127770000000 1.0
C      1  0.5362120000000  0.4811190000000  0.5048950000000 1.0
C      1  0.5353580000000  0.5035640000000  0.4840540000000 1.0
C      1  0.5314130000000  0.5376520000000  0.5727850000000 1.0
C      1  0.5290810000000  0.4178350000000  0.4964340000000 1.0
C      1  0.5326170000000  0.5425400000000  0.4317080000000 1.0
C      1  0.5467590000000  0.5099970000000  0.5410880000000 1.0
C      1  0.5471480000000  0.4555420000000  0.4868120000000 1.0
C      1  0.5482260000000  0.5319650000000  0.4694200000000 1.0
C      1  0.5293620000000  0.5018280000000  0.5168930000000 1.0
C      1  0.5288810000000  0.4828130000000  0.4928630000000 1.0
C      1  0.5240190000000  0.5106420000000  0.4913110000000 1.0
C      1  0.5234160000000  0.4560020000000  0.4276050000000 1.0
C      1  0.5203130000000  0.5860900000000  0.4978450000000 1.0
C      1  0.5229930000000  0.4595400000000  0.5733320000000 1.0
C      1  0.4856410000000  0.4159360000000  0.5292030000000 1.0
C      1  0.4874670000000  0.5171510000000  0.4134420000000 1.0
C      1  0.4856950000000  0.5663300000000  0.5599500000000 1.0
C      1  0.4642110000000  0.5219620000000  0.4340830000000 1.0
C      1  0.4627400000000  0.5458630000000  0.5535380000000 1.0
C      1  0.4585050000000  0.4338600000000  0.5150960000000 1.0
C      1  0.4965150000000  0.4775430000000  0.5050770000000 1.0
C      1  0.4987090000000  0.5093520000000  0.4803380000000 1.0
C      1  0.4964300000000  0.5159550000000  0.5182910000000 1.0
C      1  0.5131530000000  0.4403030000000  0.4811780000000 1.0
C      1  0.5145010000000  0.5450430000000  0.4575890000000 1.0
C      1  0.5140390000000  0.5141100000000  0.5604280000000 1.0
C      1  0.4430830000000  0.4961150000000  0.4760990000000 1.0
C      1  0.4421680000000  0.5216790000000  0.5087440000000 1.0
C      1  0.4428110000000  0.4804820000000  0.5148250000000 1.0
C      1  0.5492830000000  0.4922500000000  0.4493000000000 1.0
C      1  0.5475220000000  0.5515610000000  0.5158780000000 1.0
C      1  0.5487360000000  0.4579440000000  0.5316720000000 1.0
C      1  0.4809790000000  0.5430260000000  0.5076990000000 1.0
C      1  0.4816640000000  0.4725910000000  0.5329180000000 1.0
C      1  0.4829360000000  0.4844280000000  0.4605740000000 1.0
C      1  0.4723810000000  0.5452750000000  0.4267590000000 1.0
C      1  0.4711460000000  0.5400540000000  0.5773300000000 1.0
C      1  0.4688750000000  0.4150020000000  0.4991110000000 1.0
C      1  0.4456200000000  0.4427890000000  0.5338840000000 1.0
C      1  0.4455710000000  0.4987400000000  0.4336950000000 1.0
C      1  0.4441370000000  0.5571350000000  0.5322080000000 1.0
C      1  0.5056670000000  0.5644530000000  0.4454500000000 1.0
C      1  0.5049320000000  0.5144630000000  0.5835340000000 1.0
C      1  0.5046670000000  0.4192960000000  0.4687160000000 1.0
C      1  0.4451450000000  0.4855320000000  0.4397690000000 1.0
C      1  0.4434410000000  0.5585280000000  0.5175970000000 1.0
C      1  0.4443520000000  0.4543950000000  0.5421360000000 1.0
C      1  0.4218830000000  0.4722340000000  0.4919080000000 1.0
C      1  0.4215480000000  0.5192020000000  0.4799070000000 1.0
C      1  0.4214090000000  0.5060280000000  0.5271580000000 1.0
C      1  0.4351370000000  0.5109930000000  0.5476460000000 1.0
C      1  0.4362590000000  0.4528700000000  0.4860000000000 1.0
C      1  0.4354110000000  0.5346330000000  0.4659560000000 1.0
C      1  0.5072970000000  0.4808860000000  0.5437480000000 1.0
C      1  0.5072560000000  0.4707590000000  0.4573780000000 1.0
C      1  0.5071880000000  0.5474290000000  0.4946000000000 1.0
C      1  0.5422140000000  0.5542590000000  0.4602720000000 1.0
C      1  0.5414210000000  0.5073070000000  0.5654870000000 1.0
C      1  0.5399900000000  0.4367270000000  0.4717180000000 1.0
C      1  0.5002590000000  0.4995380000000  0.4155690000000 1.0
C      1  0.4984250000000  0.5742380000000  0.5437690000000 1.0
C      1  0.4985640000000  0.4262930000000  0.5427750000000 1.0
C      1  0.5567860000000  0.4574970000000  0.4444370000000 1.0
C      1  0.5530960000000  0.5715430000000  0.4875060000000 1.0
C      1  0.5569340000000  0.4735370000000  0.5638740000000 1.0
C      1  0.4753180000000  0.4480230000000  0.4416090000000 1.0
C      1  0.4743520000000  0.5745970000000  0.4836980000000 1.0
C      1  0.4752580000000  0.4757910000000  0.5729040000000 1.0
C      1  0.5118720000000  0.5793900000000  0.4629070000000 1.0
C      1  0.5124390000000  0.4923540000000  0.5867430000000 1.0
C      1  0.5129040000000  0.4280690000000  0.4485430000000 1.0
C      1  0.5275630000000  0.4920530000000  0.4420310000000 1.0
C      1  0.5260810000000  0.5560700000000  0.5221100000000 1.0
C      1  0.5265300000000  0.4525990000000  0.5352370000000 1.0
C      1  0.4849480000000  0.4098140000000  0.4818250000000 1.0
C      1  0.4827520000000  0.5664460000000  0.4330140000000 1.0
C      1  0.4818790000000  0.5237130000000  0.5918820000000 1.0
C      1  0.5678910000000  0.5261440000000  0.5174050000000 1.0
C      1  0.5705320000000  0.4716580000000  0.5076880000000 1.0
C      1  0.5704290000000  0.5016340000000  0.4764880000000 1.0
C      1  0.5864570000000  0.5049870000000  0.4975850000000 1.0
C      1  0.5859530000000  0.5168350000000  0.5058220000000 1.0
C      1  0.5832370000000  0.4933300000000  0.5059240000000 1.0
C      1  0.4290840000000  0.5039380000000  0.4602900000000 1.0
C      1  0.4279540000000  0.5309060000000  0.5236190000000 1.0
C      1  0.4302660000000  0.4614980000000  0.5146260000000 1.0
C      1  0.5180800000000  0.4812750000000  0.5846780000000 1.0
C      1  0.5187090000000  0.4353550000000  0.4400720000000 1.0
C      1  0.5164620000000  0.5839070000000  0.4736640000000 1.0
C      1  0.5568930000000  0.5112970000000  0.4816630000000 1.0
C      1  0.5563600000000  0.5184990000000  0.5220560000000 1.0
C      1  0.5577320000000  0.4741500000000  0.4997950000000 1.0
C      1  0.4542330000000  0.4774490000000  0.4848920000000 1.0
C      1  0.4536060000000  0.5238420000000  0.4880140000000 1.0
C      1  0.4534050000000  0.4980070000000  0.5269390000000 1.0
C      1  0.5313340000000  0.4274180000000  0.5319520000000 1.0
C      1  0.5332160000000  0.5073940000000  0.4218140000000 1.0
C      1  0.5318340000000  0.5634810000000  0.5458830000000 1.0
C      1  0.5081980000000  0.5414460000000  0.4283870000000 1.0
C      1  0.5069520000000  0.5410110000000  0.5734130000000 1.0
C      1  0.5043710000000  0.4158880000000  0.4986930000000 1.0
C      1  0.5130460000000  0.5146400000000  0.4320370000000 1.0
C      1  0.5116180000000  0.5523950000000  0.5490690000000 1.0
C      1  0.5111560000000  0.4321840000000  0.5206310000000 1.0
C      1  0.4962410000000  0.4377000000000  0.5024630000000 1.0
C      1  0.4978100000000  0.5277220000000  0.4450870000000 1.0
C      1  0.4968720000000  0.5338280000000  0.5529690000000 1.0
C      1  0.5195980000000  0.5473040000000  0.4333050000000 1.0
C      1  0.5184070000000  0.5336490000000  0.5756530000000 1.0
C      1  0.5159810000000  0.4172820000000  0.4912090000000 1.0
C      1  0.5278650000000  0.5221790000000  0.4600010000000 1.0
C      1  0.5264980000000  0.5245660000000  0.5397500000000 1.0
C      1  0.5268980000000  0.4531180000000  0.4996600000000 1.0
C      1  0.4569430000000  0.4883930000000  0.5392230000000 1.0
C      1  0.4578050000000  0.4715470000000  0.4704210000000 1.0
C      1  0.4568000000000  0.5393110000000  0.4902800000000 1.0
C      1  0.5654070000000  0.5237140000000  0.5024350000000 1.0
C      1  0.5613060000000  0.4967740000000  0.5169300000000 1.0
C      1  0.5684690000000  0.4883480000000  0.4836440000000 1.0
C      1  0.4651780000000  0.5114700000000  0.4237530000000 1.0
C      1  0.4634130000000  0.5600310000000  0.5496240000000 1.0
C      1  0.4630100000000  0.4279510000000  0.5290810000000 1.0
C      1  0.4771460000000  0.5495440000000  0.4590280000000 1.0
C      1  0.4768070000000  0.5100230000000  0.5640000000000 1.0
C      1  0.4771910000000  0.4393650000000  0.4764300000000 1.0
C      1  0.4480680000000  0.4548430000000  0.4527930000000 1.0
C      1  0.4468920000000  0.5627350000000  0.4840950000000 1.0
C      1  0.4473930000000  0.4814150000000  0.5625230000000 1.0
C      1  0.4914340000000  0.5284840000000  0.4210360000000 1.0
C      1  0.4898640000000  0.5540770000000  0.5660860000000 1.0
C      1  0.4891890000000  0.4172010000000  0.5156400000000 1.0
C      1  0.4356650000000  0.5348140000000  0.5124950000000 1.0
C      1  0.4369040000000  0.4698570000000  0.5238770000000 1.0
C      1  0.4372090000000  0.4926440000000  0.4626600000000 1.0
C      1  0.4887500000000  0.5106570000000  0.5554280000000 1.0
C      1  0.4888260000000  0.4471440000000  0.4808090000000 1.0
C      1  0.4892310000000  0.5422190000000  0.4630800000000 1.0
C      1  0.5020500000000  0.5717480000000  0.4572390000000 1.0
C      1  0.5019760000000  0.5005000000000  0.5835640000000 1.0
C      1  0.5022620000000  0.4268300000000  0.4568300000000 1.0
C      1  0.5159180000000  0.5172500000000  0.5334670000000 1.0
C      1  0.5156430000000  0.4626710000000  0.4997430000000 1.0
C      1  0.5172550000000  0.5209910000000  0.4695340000000 1.0
C      1  0.5372260000000  0.5453380000000  0.4924620000000 1.0
C      1  0.5375240000000  0.4828490000000  0.5414750000000 1.0
C      1  0.5378820000000  0.4716580000000  0.4651410000000 1.0
C      1  0.5254270000000  0.5402620000000  0.5197750000000 1.0
C      1  0.5259590000000  0.4629000000000  0.5232330000000 1.0
C      1  0.5267780000000  0.4974760000000  0.4575720000000 1.0
C      1  0.4819740000000  0.4130900000000  0.5043830000000 1.0
C      1  0.4857520000000  0.5413370000000  0.4232650000000 1.0
C      1  0.4844000000000  0.5453880000000  0.5759780000000 1.0
C      1  0.4238740000000  0.4714340000000  0.5060950000000 1.0
C      1  0.4229510000000  0.5067410000000  0.4730400000000 1.0
C      1  0.4222920000000  0.5182150000000  0.5197250000000 1.0
C      1  0.4422980000000  0.5025580000000  0.5566030000000 1.0
C      1  0.4432970000000  0.4494810000000  0.4740880000000 1.0
C      1  0.4422780000000  0.5467210000000  0.4688700000000 1.0
C      1  0.4710330000000  0.4931510000000  0.5418100000000 1.0
C      1  0.4718880000000  0.4672710000000  0.4733370000000 1.0
C      1  0.4710290000000  0.5395390000000  0.4851800000000 1.0
C      1  0.5285760000000  0.4404960000000  0.5601200000000 1.0
C      1  0.5299180000000  0.4770520000000  0.4184720000000 1.0
C      1  0.5271850000000  0.5833760000000  0.5206250000000 1.0
C      1  0.5363560000000  0.5425510000000  0.4683800000000 1.0
C      1  0.5354710000000  0.5055450000000  0.5513210000000 1.0
C      1  0.5350790000000  0.4504530000000  0.4776070000000 1.0
C      1  0.5297240000000  0.5449630000000  0.4809000000000 1.0
C      1  0.5298170000000  0.4930020000000  0.5475520000000 1.0
C      1  0.5294210000000  0.4613250000000  0.4696440000000 1.0
C      1  0.5049620000000  0.4792420000000  0.5286480000000 1.0
C      1  0.5052850000000  0.4887400000000  0.4707930000000 1.0
C      1  0.5041610000000  0.5356850000000  0.5043800000000 1.0
C      1  0.5332230000000  0.5807300000000  0.4982390000000 1.0
C      1  0.5360520000000  0.4607950000000  0.5679790000000 1.0
C      1  0.5360060000000  0.4599450000000  0.4325010000000 1.0
C      1  0.4997770000000  0.4472360000000  0.4304790000000 1.0
C      1  0.4972250000000  0.5855010000000  0.4888560000000 1.0
C      1  0.4995350000000  0.4668010000000  0.5781880000000 1.0
C      1  0.5581930000000  0.5120660000000  0.4967460000000 1.0
C      1  0.5575680000000  0.4994190000000  0.5030170000000 1.0
C      1  0.5587100000000  0.4878820000000  0.4940830000000 1.0
C      1  0.4955750000000  0.5616140000000  0.4350310000000 1.0
C      1  0.4947140000000  0.5246240000000  0.5867910000000 1.0
C      1  0.4941180000000  0.4113430000000  0.4720210000000 1.0
C      1  0.5159600000000  0.5041500000000  0.5139140000000 1.0
C      1  0.5164090000000  0.4871510000000  0.4972110000000 1.0
C      1  0.5170460000000  0.5008480000000  0.5004840000000 1.0
C      1  0.4654160000000  0.4884150000000  0.4875360000000 1.0
C      1  0.4650800000000  0.5165780000000  0.4961930000000 1.0
C      1  0.4649140000000  0.4952090000000  0.5164870000000 1.0
C      1  0.5283200000000  0.5222810000000  0.5014340000000 1.0
C      1  0.5316060000000  0.4872250000000  0.5177940000000 1.0
C      1  0.5313590000000  0.4897620000000  0.4807600000000 1.0
C      1  0.5430980000000  0.4576390000000  0.4448800000000 1.0
C      1  0.5394760000000  0.5708020000000  0.4895660000000 1.0
C      1  0.5431960000000  0.4725440000000  0.5634940000000 1.0
C      1  0.5334510000000  0.5148910000000  0.5755340000000 1.0
C      1  0.5315300000000  0.4249900000000  0.4745100000000 1.0
C      1  0.5341690000000  0.5582230000000  0.4486780000000 1.0
C      1  0.5387210000000  0.4701970000000  0.4515550000000 1.0
C      1  0.5358530000000  0.5584670000000  0.4970410000000 1.0
C      1  0.5384650000000  0.4718150000000  0.5494500000000 1.0
C      1  0.4830820000000  0.4482420000000  0.5207630000000 1.0
C      1  0.4848180000000  0.5063830000000  0.4458350000000 1.0
C      1  0.4830130000000  0.5441510000000  0.5345630000000 1.0
C      1  0.4683900000000  0.4415650000000  0.5578570000000 1.0
C      1  0.4691930000000  0.4797110000000  0.4205230000000 1.0
C      1  0.4681670000000  0.5771610000000  0.5213520000000 1.0
C      1  0.4677110000000  0.5169630000000  0.4477390000000 1.0
C      1  0.4665220000000  0.5367810000000  0.5421230000000 1.0
C      1  0.4676490000000  0.4460780000000  0.5112580000000 1.0
C      1  0.4940750000000  0.5351460000000  0.5386560000000 1.0
C      1  0.4939710000000  0.4494380000000  0.5108980000000 1.0
C      1  0.4954720000000  0.5147430000000  0.4517420000000 1.0
C      1  0.4292400000000  0.4983250000000  0.5154910000000 1.0
C      1  0.4296730000000  0.4860410000000  0.4913630000000 1.0
C      1  0.4293390000000  0.5131060000000  0.4925790000000 1.0
C      1  0.4541320000000  0.4906250000000  0.5720730000000 1.0
C      1  0.4545890000000  0.4418270000000  0.4558290000000 1.0
C      1  0.4536820000000  0.5662010000000  0.4712590000000 1.0
C      1  0.5177900000000  0.4768670000000  0.5203700000000 1.0
C      1  0.5186390000000  0.4951860000000  0.4717050000000 1.0
C      1  0.5168350000000  0.5295190000000  0.5102170000000 1.0
C      1  0.5634520000000  0.5668560000000  0.4934300000000 1.0
C      1  0.5663150000000  0.4708010000000  0.5553940000000 1.0
C      1  0.5666480000000  0.4658780000000  0.4445360000000 1.0
C      1  0.4460920000000  0.4615740000000  0.4418180000000 1.0
C      1  0.4446170000000  0.5686970000000  0.4954850000000 1.0
C      1  0.4452250000000  0.4685890000000  0.5618440000000 1.0
C      1  0.4852670000000  0.4345970000000  0.5423210000000 1.0
C      1  0.4869670000000  0.4958830000000  0.4229030000000 1.0
C      1  0.4851980000000  0.5697200000000  0.5367780000000 1.0
C      1  0.4433930000000  0.5461460000000  0.5104380000000 1.0
C      1  0.4443720000000  0.4667080000000  0.5350130000000 1.0
C      1  0.4453370000000  0.4854760000000  0.4539970000000 1.0
C      1  0.4713270000000  0.5239870000000  0.5464520000000 1.0
C      1  0.4722690000000  0.4474400000000  0.4976600000000 1.0
C      1  0.4723680000000  0.5272270000000  0.4565090000000 1.0
C      1  0.4855460000000  0.4616920000000  0.5590950000000 1.0
C      1  0.4865890000000  0.4655510000000  0.4343930000000 1.0
C      1  0.4851460000000  0.5714040000000  0.5026620000000 1.0
C      1  0.4547950000000  0.4329730000000  0.5392420000000 1.0
C      1  0.4558800000000  0.5006230000000  0.4233180000000 1.0
C      1  0.4544860000000  0.5648870000000  0.5393650000000 1.0
C      1  0.5175260000000  0.4491650000000  0.5648740000000 1.0
C      1  0.5186160000000  0.4685860000000  0.4225390000000 1.0
C      1  0.5157260000000  0.5831720000000  0.5113350000000 1.0
C      1  0.4560850000000  0.4751630000000  0.5087120000000 1.0
C      1  0.4562150000000  0.5044520000000  0.4742660000000 1.0
C      1  0.4552170000000  0.5198160000000  0.5170260000000 1.0
C      1  0.5789240000000  0.5262110000000  0.4970420000000 1.0
C      1  0.5758390000000  0.4971000000000  0.5182090000000 1.0
C      1  0.5789650000000  0.4783310000000  0.4873180000000 1.0
C      1  0.5165290000000  0.4908810000000  0.5502030000000 1.0
C      1  0.5161580000000  0.4608830000000  0.4655490000000 1.0
C      1  0.5162230000000  0.5474980000000  0.4824280000000 1.0
C      1  0.5118750000000  0.5624670000000  0.5247280000000 1.0
C      1  0.5123660000000  0.4479220000000  0.5407690000000 1.0
C      1  0.5135840000000  0.4895650000000  0.4348700000000 1.0
C      1  0.5474920000000  0.5375230000000  0.5561980000000 1.0
C      1  0.5466120000000  0.4312250000000  0.5036500000000 1.0
C      1  0.5491200000000  0.5290110000000  0.4405630000000 1.0
C      1  0.4621340000000  0.5749990000000  0.5084260000000 1.0
C      1  0.4627600000000  0.4542390000000  0.5614680000000 1.0
C      1  0.4633820000000  0.4696850000000  0.4292200000000 1.0
C      1  0.4944970000000  0.4602100000000  0.4453470000000 1.0
C      1  0.4940730000000  0.5650100000000  0.4928440000000 1.0
C      1  0.4942860000000  0.4733930000000  0.5594350000000 1.0
C      1  0.4249360000000  0.4607660000000  0.4856590000000 1.0
C      1  0.4241700000000  0.5304030000000  0.4730820000000 1.0
C      1  0.4241310000000  0.5064410000000  0.5402590000000 1.0
C      1  0.5681510000000  0.5064810000000  0.5382720000000 1.0
C      1  0.5681330000000  0.4585240000000  0.4824170000000 1.0
C      1  0.5695650000000  0.5319840000000  0.4757960000000 1.0
C      1  0.4930820000000  0.4494340000000  0.5603510000000 1.0
C      1  0.4941930000000  0.4728860000000  0.4240620000000 1.0
C      1  0.4922620000000  0.5773600000000  0.5139360000000 1.0
C      1  0.5075220000000  0.5427440000000  0.5363930000000 1.0
C      1  0.5073890000000  0.4476200000000  0.5181810000000 1.0
C      1  0.5087850000000  0.5090250000000  0.4467070000000 1.0
C      1  0.4816540000000  0.4704270000000  0.4638110000000 1.0
C      1  0.4807470000000  0.5457820000000  0.4930590000000 1.0
C      1  0.4811030000000  0.4835230000000  0.5429360000000 1.0
C      1  0.5364740000000  0.5612870000000  0.5111580000000 1.0
C      1  0.5385480000000  0.4582280000000  0.5441910000000 1.0
C      1  0.5390600000000  0.4816360000000  0.4426220000000 1.0
C      1  0.4907470000000  0.4969840000000  0.4375960000000 1.0
C      1  0.4889130000000  0.5562620000000  0.5315510000000 1.0
C      1  0.4891190000000  0.4456360000000  0.5330190000000 1.0
C      1  0.4480210000000  0.5574110000000  0.4611540000000 1.0
C      1  0.4481100000000  0.5037040000000  0.5697340000000 1.0
C      1  0.4489190000000  0.4374070000000  0.4684900000000 1.0
C      1  0.4956320000000  0.5376740000000  0.5805990000000 1.0
C      1  0.4916420000000  0.4113080000000  0.4942860000000 1.0
C      1  0.4968580000000  0.5493460000000  0.4274390000000 1.0
C      1  0.5636390000000  0.4894240000000  0.4532600000000 1.0
C      1  0.5620370000000  0.5503940000000  0.5120120000000 1.0
C      1  0.5632770000000  0.4624260000000  0.5319160000000 1.0
C      1  0.4906070000000  0.5006980000000  0.5010710000000 1.0
END
