TITL C-3151192-8964-48 42.3228235830229 1000000 -3658.47819558451 0 0 520 (C1) n - 1
REM
REM in /scratch/bkarasulu/Only-C240/Try4-Only-SYMOP24
REM
REM
REM
REM
REM
REM ./C.cell (018bbde761a0794ceee8127bb1f748ef)
REM
REM compiler GCC version 9.2.1 20190827 (Red Hat 9.2.1-1)
REM options -cpp -mtune=generic -march=x86-64 -g -O0 -fpre-include=/usr/include/finclude/math-vector-fortran.h
REM seed -652190630 1856413028 1620956155 -794807032 -1847632092 1353702196 -1555012888 2101987592 1059057825 134447998 1988668928 785452171 -712663923 -14695253 1397328628 -1612652425 -1196285549 1762199720 2124553665 1284302113 159635017 -1493272041 -715658944 -727107937 1020773344 773563257 2063357704 -501456002 761631470 -1712350524 632359172 782738495 861129010
REM
CELL 1.54180  100.00000  100.00000  100.00000   90.00000   90.00000   90.00000
LATT -1
SFAC C  
C      1  0.5180670000000  0.5038560000000  0.4515720000000 1.0
C      1  0.4419880000000  0.5167870000000  0.5001270000000 1.0
C      1  0.4987540000000  0.4394210000000  0.5172930000000 1.0
C      1  0.4867120000000  0.5049790000000  0.5642480000000 1.0
C      1  0.5150320000000  0.5000830000000  0.5543600000000 1.0
C      1  0.4804080000000  0.4962540000000  0.4518020000000 1.0
C      1  0.5580970000000  0.5180300000000  0.5008400000000 1.0
C      1  0.4511120000000  0.4808240000000  0.4938780000000 1.0
C      1  0.5520350000000  0.4807650000000  0.5058010000000 1.0
C      1  0.5012470000000  0.4477310000000  0.4886140000000 1.0
C      1  0.4995190000000  0.5560760000000  0.4837430000000 1.0
C      1  0.5004240000000  0.5557500000000  0.5159830000000 1.0
C      1  0.4491240000000  0.5049820000000  0.5194860000000 1.0
C      1  0.4984560000000  0.5156120000000  0.4461640000000 1.0
C      1  0.5113910000000  0.4476630000000  0.4994340000000 1.0
C      1  0.5506210000000  0.5055890000000  0.4821960000000 1.0
C      1  0.5595230000000  0.4993450000000  0.5183390000000 1.0
C      1  0.4430540000000  0.4998830000000  0.4828080000000 1.0
C      1  0.4965950000000  0.5175890000000  0.5477970000000 1.0
C      1  0.4970760000000  0.4801310000000  0.4511980000000 1.0
C      1  0.5015100000000  0.4863590000000  0.5635750000000 1.0
C      1  0.4835500000000  0.4385940000000  0.4976240000000 1.0
C      1  0.4806260000000  0.5495310000000  0.5051110000000 1.0
C      1  0.5191030000000  0.5499290000000  0.4958860000000 1.0
C      1  0.5588200000000  0.4695720000000  0.5497470000000 1.0
C      1  0.5445140000000  0.5595960000000  0.4750380000000 1.0
C      1  0.4732860000000  0.5484580000000  0.5586850000000 1.0
C      1  0.4418880000000  0.4756360000000  0.4514040000000 1.0
C      1  0.5547360000000  0.5227220000000  0.4547060000000 1.0
C      1  0.4426680000000  0.5233420000000  0.5455990000000 1.0
C      1  0.4547820000000  0.5580710000000  0.5241340000000 1.0
C      1  0.5482600000000  0.4425140000000  0.5254460000000 1.0
C      1  0.4539000000000  0.4442210000000  0.4747340000000 1.0
C      1  0.5224370000000  0.5481710000000  0.4418060000000 1.0
C      1  0.4750720000000  0.4529730000000  0.4392890000000 1.0
C      1  0.5238700000000  0.4520150000000  0.5583730000000 1.0
C      1  0.5470760000000  0.4725900000000  0.5606600000000 1.0
C      1  0.4753030000000  0.5586080000000  0.5472730000000 1.0
C      1  0.5559990000000  0.5494760000000  0.4726690000000 1.0
C      1  0.4515570000000  0.4748000000000  0.4396830000000 1.0
C      1  0.4522160000000  0.5237990000000  0.5573070000000 1.0
C      1  0.5438370000000  0.5233420000000  0.4438970000000 1.0
C      1  0.5231680000000  0.5593330000000  0.4519290000000 1.0
C      1  0.5237170000000  0.4421800000000  0.5468050000000 1.0
C      1  0.4745310000000  0.4431110000000  0.4506440000000 1.0
C      1  0.4432870000000  0.5482680000000  0.5251510000000 1.0
C      1  0.4438680000000  0.4553280000000  0.4754310000000 1.0
C      1  0.5580440000000  0.4538180000000  0.5229580000000 1.0
C      1  0.4553330000000  0.4623950000000  0.5570580000000 1.0
C      1  0.5587680000000  0.4565810000000  0.4640160000000 1.0
C      1  0.4642110000000  0.5652440000000  0.4579060000000 1.0
C      1  0.5379200000000  0.4656150000000  0.4352580000000 1.0
C      1  0.4565940000000  0.5336440000000  0.4351490000000 1.0
C      1  0.5457380000000  0.5208430000000  0.5668340000000 1.0
C      1  0.4424120000000  0.4576160000000  0.5353110000000 1.0
C      1  0.5648390000000  0.5484880000000  0.5301540000000 1.0
C      1  0.4330590000000  0.5422800000000  0.4670860000000 1.0
C      1  0.5322130000000  0.5594700000000  0.5465800000000 1.0
C      1  0.4624540000000  0.4436270000000  0.5434220000000 1.0
C      1  0.5287910000000  0.4320600000000  0.4617630000000 1.0
C      1  0.5595550000000  0.4670420000000  0.4553010000000 1.0
C      1  0.4686960000000  0.4602840000000  0.5616060000000 1.0
C      1  0.4509950000000  0.5604140000000  0.4604470000000 1.0
C      1  0.4326970000000  0.4676200000000  0.5409860000000 1.0
C      1  0.4376280000000  0.5403230000000  0.4531290000000 1.0
C      1  0.5669940000000  0.5228410000000  0.5435440000000 1.0
C      1  0.5332310000000  0.4527720000000  0.4428290000000 1.0
C      1  0.5287970000000  0.5403610000000  0.5679460000000 1.0
C      1  0.4583010000000  0.5469400000000  0.4398620000000 1.0
C      1  0.5435500000000  0.5604640000000  0.5378970000000 1.0
C      1  0.5428680000000  0.4356590000000  0.4681670000000 1.0
C      1  0.4614590000000  0.4388720000000  0.5304750000000 1.0
C      1  0.4826810000000  0.4731530000000  0.5074610000000 1.0
C      1  0.5112770000000  0.4787820000000  0.4718440000000 1.0
C      1  0.4676330000000  0.5108300000000  0.4790470000000 1.0
C      1  0.5206350000000  0.4691240000000  0.4922600000000 1.0
C      1  0.4768260000000  0.5302230000000  0.4899080000000 1.0
C      1  0.5229120000000  0.5308070000000  0.5120160000000 1.0
C      1  0.4928660000000  0.4834980000000  0.5282370000000 1.0
C      1  0.5133610000000  0.5187190000000  0.5293510000000 1.0
C      1  0.4893250000000  0.5221440000000  0.4704200000000 1.0
C      1  0.5346400000000  0.5098930000000  0.5209320000000 1.0
C      1  0.4702890000000  0.4904250000000  0.5201940000000 1.0
C      1  0.5313530000000  0.4886360000000  0.4814070000000 1.0
C      1  0.5098760000000  0.4695700000000  0.4824710000000 1.0
C      1  0.4712170000000  0.4812600000000  0.5095810000000 1.0
C      1  0.4786190000000  0.5128210000000  0.4697420000000 1.0
C      1  0.4933390000000  0.4737070000000  0.5177700000000 1.0
C      1  0.4873980000000  0.5319600000000  0.4806250000000 1.0
C      1  0.5113360000000  0.5297010000000  0.5202770000000 1.0
C      1  0.5313960000000  0.4785380000000  0.4911120000000 1.0
C      1  0.5339780000000  0.5211980000000  0.5115850000000 1.0
C      1  0.4666350000000  0.5202920000000  0.4895930000000 1.0
C      1  0.5228810000000  0.5078770000000  0.5291810000000 1.0
C      1  0.5211970000000  0.4886500000000  0.4715790000000 1.0
C      1  0.4816790000000  0.4929740000000  0.5286660000000 1.0
C      1  0.4794480000000  0.4556270000000  0.4188300000000 1.0
C      1  0.4225190000000  0.4799580000000  0.4574230000000 1.0
C      1  0.4579670000000  0.4236730000000  0.4780120000000 1.0
C      1  0.5161310000000  0.4582230000000  0.5769560000000 1.0
C      1  0.4784780000000  0.5424570000000  0.5779780000000 1.0
C      1  0.5167640000000  0.5409150000000  0.4235030000000 1.0
C      1  0.5780580000000  0.4753580000000  0.5430200000000 1.0
C      1  0.4225570000000  0.5194100000000  0.5417640000000 1.0
C      1  0.5749820000000  0.5183020000000  0.4583570000000 1.0
C      1  0.5431630000000  0.4228500000000  0.5208600000000 1.0
C      1  0.4585620000000  0.5780020000000  0.5198120000000 1.0
C      1  0.5387200000000  0.5788750000000  0.4805340000000 1.0
C      1  0.4237090000000  0.4582060000000  0.4800330000000 1.0
C      1  0.4572010000000  0.4817400000000  0.4210920000000 1.0
C      1  0.4774700000000  0.4230430000000  0.4558320000000 1.0
C      1  0.5782930000000  0.4575200000000  0.5173480000000 1.0
C      1  0.5754960000000  0.5436860000000  0.4770740000000 1.0
C      1  0.4233020000000  0.5431320000000  0.5203930000000 1.0
C      1  0.5387080000000  0.4828020000000  0.5772120000000 1.0
C      1  0.5374820000000  0.5177700000000  0.4245900000000 1.0
C      1  0.4560790000000  0.5197300000000  0.5776900000000 1.0
C      1  0.5196790000000  0.4222610000000  0.5413520000000 1.0
C      1  0.5171010000000  0.5782800000000  0.4582860000000 1.0
C      1  0.4815210000000  0.5775770000000  0.5406470000000 1.0
C      1  0.4956790000000  0.4716310000000  0.5806490000000 1.0
C      1  0.5778390000000  0.4947030000000  0.4734340000000 1.0
C      1  0.4687050000000  0.5789760000000  0.4952810000000 1.0
C      1  0.5052030000000  0.4670200000000  0.4189760000000 1.0
C      1  0.4936540000000  0.5304330000000  0.4225350000000 1.0
C      1  0.5039880000000  0.5364770000000  0.5785870000000 1.0
C      1  0.4236060000000  0.4938700000000  0.5293580000000 1.0
C      1  0.5792330000000  0.4990590000000  0.5389700000000 1.0
C      1  0.4213700000000  0.5041670000000  0.4668910000000 1.0
C      1  0.5294590000000  0.5782780000000  0.5070920000000 1.0
C      1  0.4709340000000  0.4201800000000  0.5016560000000 1.0
C      1  0.5373330000000  0.4225510000000  0.4963760000000 1.0
C      1  0.5783430000000  0.4730640000000  0.4940010000000 1.0
C      1  0.4682840000000  0.4958240000000  0.5795140000000 1.0
C      1  0.4944300000000  0.5794820000000  0.4699690000000 1.0
C      1  0.4250000000000  0.4702520000000  0.5054430000000 1.0
C      1  0.4242320000000  0.5394400000000  0.4944120000000 1.0
C      1  0.5773700000000  0.5389340000000  0.5014030000000 1.0
C      1  0.5328840000000  0.4918390000000  0.4247390000000 1.0
C      1  0.5290000000000  0.5074530000000  0.5798140000000 1.0
C      1  0.4697970000000  0.5043680000000  0.4193880000000 1.0
C      1  0.5062080000000  0.5782120000000  0.5302740000000 1.0
C      1  0.5026510000000  0.4231060000000  0.4631770000000 1.0
C      1  0.4958420000000  0.4192680000000  0.5290580000000 1.0
C      1  0.4283660000000  0.5520060000000  0.4895820000000 1.0
C      1  0.4852880000000  0.4318640000000  0.5481600000000 1.0
C      1  0.5457770000000  0.4882780000000  0.4295400000000 1.0
C      1  0.5736960000000  0.5520930000000  0.5058380000000 1.0
C      1  0.4331090000000  0.4502340000000  0.5136150000000 1.0
C      1  0.5663480000000  0.4466590000000  0.4845780000000 1.0
C      1  0.5085750000000  0.4276020000000  0.4508770000000 1.0
C      1  0.4851090000000  0.5711880000000  0.4490740000000 1.0
C      1  0.5125350000000  0.5688610000000  0.5547480000000 1.0
C      1  0.4508450000000  0.4852080000000  0.5671380000000 1.0
C      1  0.5612050000000  0.5057600000000  0.5761880000000 1.0
C      1  0.4484690000000  0.5125910000000  0.4290330000000 1.0
C      1  0.4834170000000  0.5511920000000  0.4310700000000 1.0
C      1  0.5503660000000  0.4253600000000  0.4920650000000 1.0
C      1  0.4304300000000  0.4867630000000  0.5497700000000 1.0
C      1  0.5078320000000  0.5495100000000  0.5736820000000 1.0
C      1  0.5137110000000  0.4467110000000  0.4302810000000 1.0
C      1  0.4876660000000  0.4499540000000  0.5691330000000 1.0
C      1  0.4518500000000  0.4307990000000  0.5116230000000 1.0
C      1  0.4483360000000  0.5697290000000  0.4851920000000 1.0
C      1  0.5538690000000  0.5716810000000  0.5118020000000 1.0
C      1  0.5657050000000  0.4857480000000  0.4479440000000 1.0
C      1  0.5744260000000  0.5022760000000  0.5520640000000 1.0
C      1  0.4298350000000  0.5148750000000  0.4479280000000 1.0
C      1  0.4905040000000  0.5169840000000  0.4215580000000 1.0
C      1  0.4204210000000  0.4941800000000  0.5154160000000 1.0
C      1  0.5160980000000  0.4244960000000  0.4899850000000 1.0
C      1  0.5147400000000  0.5272790000000  0.5811380000000 1.0
C      1  0.4890550000000  0.4819690000000  0.5865820000000 1.0
C      1  0.5103070000000  0.4806640000000  0.4184130000000 1.0
C      1  0.5820390000000  0.4969470000000  0.4868680000000 1.0
C      1  0.4181150000000  0.5073070000000  0.4797420000000 1.0
C      1  0.5800820000000  0.5083900000000  0.5287270000000 1.0
C      1  0.4846130000000  0.4164960000000  0.5039310000000 1.0
C      1  0.5162310000000  0.5833500000000  0.5063410000000 1.0
C      1  0.4822120000000  0.5826730000000  0.4940950000000 1.0
C      1  0.4191950000000  0.5188780000000  0.4875080000000 1.0
C      1  0.5241770000000  0.4809370000000  0.4218500000000 1.0
C      1  0.4939810000000  0.4166180000000  0.5149420000000 1.0
C      1  0.5781170000000  0.5279460000000  0.5097850000000 1.0
C      1  0.5824600000000  0.4866460000000  0.4963990000000 1.0
C      1  0.4212830000000  0.4840900000000  0.5055210000000 1.0
C      1  0.4812700000000  0.4928070000000  0.5849550000000 1.0
C      1  0.4833930000000  0.5067160000000  0.4155530000000 1.0
C      1  0.5160810000000  0.5131150000000  0.5783060000000 1.0
C      1  0.5093360000000  0.4233720000000  0.4763060000000 1.0
C      1  0.5069240000000  0.5820870000000  0.5169740000000 1.0
C      1  0.4912090000000  0.5816450000000  0.4832910000000 1.0
C      1  0.5448340000000  0.4738080000000  0.4951460000000 1.0
C      1  0.4908800000000  0.5458330000000  0.4766400000000 1.0
C      1  0.4783570000000  0.5006950000000  0.5419140000000 1.0
C      1  0.4586970000000  0.4748870000000  0.5045460000000 1.0
C      1  0.5460370000000  0.5274820000000  0.5040180000000 1.0
C      1  0.4539090000000  0.5259510000000  0.4963200000000 1.0
C      1  0.5034560000000  0.5428540000000  0.5265660000000 1.0
C      1  0.5011410000000  0.4609870000000  0.5220040000000 1.0
C      1  0.5018200000000  0.4569560000000  0.4772560000000 1.0
C      1  0.5254100000000  0.4932700000000  0.4582780000000 1.0
C      1  0.4746590000000  0.5076340000000  0.4568990000000 1.0
C      1  0.5259910000000  0.5013510000000  0.5430400000000 1.0
C      1  0.5004430000000  0.4791370000000  0.5417860000000 1.0
C      1  0.4719370000000  0.5425080000000  0.4957570000000 1.0
C      1  0.5443840000000  0.4938230000000  0.4763270000000 1.0
C      1  0.5058140000000  0.4736650000000  0.4593140000000 1.0
C      1  0.5080460000000  0.5230330000000  0.5417110000000 1.0
C      1  0.4962440000000  0.5269920000000  0.4574930000000 1.0
C      1  0.5267280000000  0.5438980000000  0.5067720000000 1.0
C      1  0.5246540000000  0.4560890000000  0.4992580000000 1.0
C      1  0.4782380000000  0.4599510000000  0.4996110000000 1.0
C      1  0.4558460000000  0.4930390000000  0.5257850000000 1.0
C      1  0.4556250000000  0.5032400000000  0.4729600000000 1.0
C      1  0.5472130000000  0.5022470000000  0.5265300000000 1.0
C      1  0.5458280000000  0.5684160000000  0.4881460000000 1.0
C      1  0.4842590000000  0.5514670000000  0.5689730000000 1.0
C      1  0.5699690000000  0.4789330000000  0.5539510000000 1.0
C      1  0.4533210000000  0.5671550000000  0.5109710000000 1.0
C      1  0.5516750000000  0.4320630000000  0.5146800000000 1.0
C      1  0.4532160000000  0.4341510000000  0.4872910000000 1.0
C      1  0.5092390000000  0.5486610000000  0.4330360000000 1.0
C      1  0.4881770000000  0.4504620000000  0.4296360000000 1.0
C      1  0.5116560000000  0.4491270000000  0.5671340000000 1.0
C      1  0.4323510000000  0.4888560000000  0.4508580000000 1.0
C      1  0.5641080000000  0.5097140000000  0.4539190000000 1.0
C      1  0.4336320000000  0.5106660000000  0.5465610000000 1.0
C      1  0.4888540000000  0.5672220000000  0.5477400000000 1.0
C      1  0.5665510000000  0.5527600000000  0.4830180000000 1.0
C      1  0.5509260000000  0.4839250000000  0.5703020000000 1.0
C      1  0.5097580000000  0.5678400000000  0.4515600000000 1.0
C      1  0.5107430000000  0.4322470000000  0.5474120000000 1.0
C      1  0.4856140000000  0.4327220000000  0.4490000000000 1.0
C      1  0.4336340000000  0.5501840000000  0.5131050000000 1.0
C      1  0.4350570000000  0.4536470000000  0.4886650000000 1.0
C      1  0.5669200000000  0.4532150000000  0.5090990000000 1.0
C      1  0.4484850000000  0.4870860000000  0.4306950000000 1.0
C      1  0.4514780000000  0.5108020000000  0.5669300000000 1.0
C      1  0.5451750000000  0.5113730000000  0.4345180000000 1.0
C      1  0.4854220000000  0.5369600000000  0.4543060000000 1.0
C      1  0.4576500000000  0.4871460000000  0.5392040000000 1.0
C      1  0.5366590000000  0.4525410000000  0.4897130000000 1.0
C      1  0.5159740000000  0.5348970000000  0.5461910000000 1.0
C      1  0.4904450000000  0.4662120000000  0.5447150000000 1.0
C      1  0.5128610000000  0.4610650000000  0.4564620000000 1.0
C      1  0.5474950000000  0.4865660000000  0.4647120000000 1.0
C      1  0.4530120000000  0.5136410000000  0.4626460000000 1.0
C      1  0.5466110000000  0.5131310000000  0.5362560000000 1.0
C      1  0.4684350000000  0.4545060000000  0.5109530000000 1.0
C      1  0.5382910000000  0.5481130000000  0.5143300000000 1.0
C      1  0.4619400000000  0.5467490000000  0.4862800000000 1.0
C      1  0.4514000000000  0.5367660000000  0.4863550000000 1.0
C      1  0.5367070000000  0.4848310000000  0.4557300000000 1.0
C      1  0.4916630000000  0.4562100000000  0.5337260000000 1.0
C      1  0.5488010000000  0.5386890000000  0.5135000000000 1.0
C      1  0.5473420000000  0.4619340000000  0.4878870000000 1.0
C      1  0.4575770000000  0.4635140000000  0.5131890000000 1.0
C      1  0.4694240000000  0.4894220000000  0.5467380000000 1.0
C      1  0.4629430000000  0.5146620000000  0.4526540000000 1.0
C      1  0.5366470000000  0.5115510000000  0.5459900000000 1.0
C      1  0.5113890000000  0.4519770000000  0.4669900000000 1.0
C      1  0.5129800000000  0.5458960000000  0.5374520000000 1.0
C      1  0.4840440000000  0.5474870000000  0.4641280000000 1.0
C      1  0.5227510000000  0.4897480000000  0.5624210000000 1.0
C      1  0.5620680000000  0.5250800000000  0.4874180000000 1.0
C      1  0.4883880000000  0.5609720000000  0.5233240000000 1.0
C      1  0.4809240000000  0.4844320000000  0.4188320000000 1.0
C      1  0.5173390000000  0.5079450000000  0.4355110000000 1.0
C      1  0.4755420000000  0.5136560000000  0.5644360000000 1.0
C      1  0.4379080000000  0.5246410000000  0.5123520000000 1.0
C      1  0.5675330000000  0.4793310000000  0.5121850000000 1.0
C      1  0.4355100000000  0.4790960000000  0.4873740000000 1.0
C      1  0.5117370000000  0.5621380000000  0.4772440000000 1.0
C      1  0.4872490000000  0.4366130000000  0.4747550000000 1.0
C      1  0.5116960000000  0.4376110000000  0.5239470000000 1.0
C      1  0.5638400000000  0.4859050000000  0.5250760000000 1.0
C      1  0.4864140000000  0.5243110000000  0.5657400000000 1.0
C      1  0.5197740000000  0.5650070000000  0.4905370000000 1.0
C      1  0.4390090000000  0.4874110000000  0.4751390000000 1.0
C      1  0.4333930000000  0.5125830000000  0.5205350000000 1.0
C      1  0.5661150000000  0.5123670000000  0.4806330000000 1.0
C      1  0.5105310000000  0.5218370000000  0.4393940000000 1.0
C      1  0.5130830000000  0.4783690000000  0.5638670000000 1.0
C      1  0.4852980000000  0.4748250000000  0.4288670000000 1.0
C      1  0.4796590000000  0.5644160000000  0.5106000000000 1.0
C      1  0.4765750000000  0.4383160000000  0.4853110000000 1.0
C      1  0.5229270000000  0.4353010000000  0.5132430000000 1.0
C      1  0.4446490000000  0.5258580000000  0.4339510000000 1.0
C      1  0.4388310000000  0.4458040000000  0.5259240000000 1.0
C      1  0.5221550000000  0.4322180000000  0.4489760000000 1.0
C      1  0.5587610000000  0.5151460000000  0.5660670000000 1.0
C      1  0.4463690000000  0.4730300000000  0.5611730000000 1.0
C      1  0.5496140000000  0.4746730000000  0.4331330000000 1.0
C      1  0.5624240000000  0.4370030000000  0.4752710000000 1.0
C      1  0.4325890000000  0.5540000000000  0.4756640000000 1.0
C      1  0.5705500000000  0.5560470000000  0.5189280000000 1.0
C      1  0.4734360000000  0.4392370000000  0.5520820000000 1.0
C      1  0.5238430000000  0.5617240000000  0.5582600000000 1.0
C      1  0.4719050000000  0.5661660000000  0.4456030000000 1.0
C      1  0.4353840000000  0.5280000000000  0.4441410000000 1.0
C      1  0.5244740000000  0.4421320000000  0.4390190000000 1.0
C      1  0.4488500000000  0.4364970000000  0.5242190000000 1.0
C      1  0.5677780000000  0.5145610000000  0.5548490000000 1.0
C      1  0.5602560000000  0.4737980000000  0.4423050000000 1.0
C      1  0.4343230000000  0.4735980000000  0.5538350000000 1.0
C      1  0.4750310000000  0.4475640000000  0.5630490000000 1.0
C      1  0.4704110000000  0.5554170000000  0.4369030000000 1.0
C      1  0.5211270000000  0.5519800000000  0.5684100000000 1.0
C      1  0.5522620000000  0.4275030000000  0.4779660000000 1.0
C      1  0.5611710000000  0.5666930000000  0.5220290000000 1.0
C      1  0.4432430000000  0.5629860000000  0.4731330000000 1.0
C      1  0.5673320000000  0.5308200000000  0.4574560000000 1.0
C      1  0.4587800000000  0.5706430000000  0.5319530000000 1.0
C      1  0.5297870000000  0.4577080000000  0.5714790000000 1.0
C      1  0.4302900000000  0.5316730000000  0.5415810000000 1.0
C      1  0.5713890000000  0.4626860000000  0.5415570000000 1.0
C      1  0.4301320000000  0.4678520000000  0.4573190000000 1.0
C      1  0.5390250000000  0.5719300000000  0.4678330000000 1.0
C      1  0.4570220000000  0.4319610000000  0.4662930000000 1.0
C      1  0.5423410000000  0.4305330000000  0.5335470000000 1.0
C      1  0.4674120000000  0.4578870000000  0.4267400000000 1.0
C      1  0.5297730000000  0.5416700000000  0.4301810000000 1.0
C      1  0.4655040000000  0.5418240000000  0.5703440000000 1.0
C      1  0.4561370000000  0.5318980000000  0.5698780000000 1.0
C      1  0.5301810000000  0.5719840000000  0.4572630000000 1.0
C      1  0.5711330000000  0.4559800000000  0.5299560000000 1.0
C      1  0.5382560000000  0.5308990000000  0.4311640000000 1.0
C      1  0.5379130000000  0.4683560000000  0.5722230000000 1.0
C      1  0.4579200000000  0.4679620000000  0.4270190000000 1.0
C      1  0.4686690000000  0.5708840000000  0.5414660000000 1.0
C      1  0.4657150000000  0.4316890000000  0.4559240000000 1.0
C      1  0.5317630000000  0.4302730000000  0.5421160000000 1.0
C      1  0.4308530000000  0.4587920000000  0.4676630000000 1.0
C      1  0.4306920000000  0.5421860000000  0.5327120000000 1.0
C      1  0.5677960000000  0.5424230000000  0.4646750000000 1.0
C      1  0.5448270000000  0.4773230000000  0.5183500000000 1.0
C      1  0.5148470000000  0.5486820000000  0.4729870000000 1.0
C      1  0.4735690000000  0.5149030000000  0.5488890000000 1.0
C      1  0.4579990000000  0.4781290000000  0.4814510000000 1.0
C      1  0.5472250000000  0.5289470000000  0.4872210000000 1.0
C      1  0.4529130000000  0.5277720000000  0.5131190000000 1.0
C      1  0.4873260000000  0.5460210000000  0.5279390000000 1.0
C      1  0.5152030000000  0.4536170000000  0.5251760000000 1.0
C      1  0.4869010000000  0.4529140000000  0.4726890000000 1.0
C      1  0.5212180000000  0.5168960000000  0.4578030000000 1.0
C      1  0.4741120000000  0.4851510000000  0.4468480000000 1.0
C      1  0.5272060000000  0.4857440000000  0.5480230000000 1.0
C      1  0.5150700000000  0.4753140000000  0.5480060000000 1.0
C      1  0.4776940000000  0.5425340000000  0.5174110000000 1.0
C      1  0.5429740000000  0.5176650000000  0.4787470000000 1.0
C      1  0.4851470000000  0.4750520000000  0.4439060000000 1.0
C      1  0.4844230000000  0.5259300000000  0.5502170000000 1.0
C      1  0.5118760000000  0.5274960000000  0.4539310000000 1.0
C      1  0.5231590000000  0.5438560000000  0.4833670000000 1.0
C      1  0.5263680000000  0.4514120000000  0.5140490000000 1.0
C      1  0.4752500000000  0.4541880000000  0.4839080000000 1.0
C      1  0.4565390000000  0.5169710000000  0.5225260000000 1.0
C      1  0.4539140000000  0.4875200000000  0.4708770000000 1.0
C      1  0.5492530000000  0.4856720000000  0.5295210000000 1.0
C      1  0.5188840000000  0.5715850000000  0.5302270000000 1.0
C      1  0.5369700000000  0.5196170000000  0.5781830000000 1.0
C      1  0.5730320000000  0.5297810000000  0.5225530000000 1.0
C      1  0.4841700000000  0.5733550000000  0.4629550000000 1.0
C      1  0.5238250000000  0.4229610000000  0.4719050000000 1.0
C      1  0.4862860000000  0.4283570000000  0.5347720000000 1.0
C      1  0.4624650000000  0.5134080000000  0.4271620000000 1.0
C      1  0.5276620000000  0.4675040000000  0.4253660000000 1.0
C      1  0.4643690000000  0.4856090000000  0.5705920000000 1.0
C      1  0.4250460000000  0.5306980000000  0.4839480000000 1.0
C      1  0.5716000000000  0.4714420000000  0.4817160000000 1.0
C      1  0.4320010000000  0.4640800000000  0.5155490000000 1.0
C      1  0.5299850000000  0.5718540000000  0.5201440000000 1.0
C      1  0.5763990000000  0.5212260000000  0.5327150000000 1.0
C      1  0.5282090000000  0.5310210000000  0.5788120000000 1.0
C      1  0.4620360000000  0.5724620000000  0.4845390000000 1.0
C      1  0.4655330000000  0.4278890000000  0.5120090000000 1.0
C      1  0.5290620000000  0.4269390000000  0.4852560000000 1.0
C      1  0.4281710000000  0.5151720000000  0.4616350000000 1.0
C      1  0.4319790000000  0.4828940000000  0.5352280000000 1.0
C      1  0.5717690000000  0.4819060000000  0.4721000000000 1.0
C      1  0.4833760000000  0.5374560000000  0.4291040000000 1.0
C      1  0.4877920000000  0.4639390000000  0.5715380000000 1.0
C      1  0.5160790000000  0.4590120000000  0.4237450000000 1.0
C      1  0.4342230000000  0.5580000000000  0.5009730000000 1.0
C      1  0.4982170000000  0.4341380000000  0.5543430000000 1.0
C      1  0.5523810000000  0.4995720000000  0.4351010000000 1.0
C      1  0.5662760000000  0.5586510000000  0.4956260000000 1.0
C      1  0.4368190000000  0.4456650000000  0.5005690000000 1.0
C      1  0.5653760000000  0.4436440000000  0.4984970000000 1.0
C      1  0.4982350000000  0.4332730000000  0.4428950000000 1.0
C      1  0.4976050000000  0.5663820000000  0.4440380000000 1.0
C      1  0.4995980000000  0.5657050000000  0.5573000000000 1.0
C      1  0.4448430000000  0.4982380000000  0.5646570000000 1.0
C      1  0.5613770000000  0.4930780000000  0.5706770000000 1.0
C      1  0.4426520000000  0.5000010000000  0.4329330000000 1.0
C      1  0.4968120000000  0.5560750000000  0.4345470000000 1.0
C      1  0.5576070000000  0.4325190000000  0.5020070000000 1.0
C      1  0.4349500000000  0.4988780000000  0.5547960000000 1.0
C      1  0.4971210000000  0.5564870000000  0.5677070000000 1.0
C      1  0.5000870000000  0.4426780000000  0.4327720000000 1.0
C      1  0.4993250000000  0.4432210000000  0.5648640000000 1.0
C      1  0.4460320000000  0.4353610000000  0.4995700000000 1.0
C      1  0.4448230000000  0.5665580000000  0.4989910000000 1.0
C      1  0.5557450000000  0.5674490000000  0.4986900000000 1.0
C      1  0.5627290000000  0.4988390000000  0.4444850000000 1.0
C      1  0.5701820000000  0.4912510000000  0.5598070000000 1.0
C      1  0.4333650000000  0.5013850000000  0.4432620000000 1.0
C      1  0.5323300000000  0.5732250000000  0.4928970000000 1.0
C      1  0.4896080000000  0.5332880000000  0.5766270000000 1.0
C      1  0.5764370000000  0.4862290000000  0.5339710000000 1.0
C      1  0.4670210000000  0.5732600000000  0.5087330000000 1.0
C      1  0.5335680000000  0.4246850000000  0.5104510000000 1.0
C      1  0.4672460000000  0.4267100000000  0.4884400000000 1.0
C      1  0.5069660000000  0.5316470000000  0.4278450000000 1.0
C      1  0.4914950000000  0.4636630000000  0.4222500000000 1.0
C      1  0.5097210000000  0.4706760000000  0.5765830000000 1.0
C      1  0.4274830000000  0.4910620000000  0.4653300000000 1.0
C      1  0.5725780000000  0.5077020000000  0.4679330000000 1.0
C      1  0.4265790000000  0.5081830000000  0.5332280000000 1.0
C      1  0.4928700000000  0.5719430000000  0.5332170000000 1.0
C      1  0.5736140000000  0.5350630000000  0.4882060000000 1.0
C      1  0.5294220000000  0.4936770000000  0.5755250000000 1.0
C      1  0.5077320000000  0.5738340000000  0.4681000000000 1.0
C      1  0.5089540000000  0.4255150000000  0.5326030000000 1.0
C      1  0.4885770000000  0.4263430000000  0.4641800000000 1.0
C      1  0.4277650000000  0.5359000000000  0.5084160000000 1.0
C      1  0.4281240000000  0.4666470000000  0.4911420000000 1.0
C      1  0.5744800000000  0.4670600000000  0.5072260000000 1.0
C      1  0.4680170000000  0.4901600000000  0.4180380000000 1.0
C      1  0.4654460000000  0.5092110000000  0.5743940000000 1.0
C      1  0.5292290000000  0.5061500000000  0.4267740000000 1.0
C      1  0.4978420000000  0.5153670000000  0.5623570000000 1.0
C      1  0.5747590000000  0.5037340000000  0.5150120000000 1.0
C      1  0.5099990000000  0.5732000000000  0.4970970000000 1.0
C      1  0.4947790000000  0.5100150000000  0.4329230000000 1.0
C      1  0.5034030000000  0.4928650000000  0.4188110000000 1.0
C      1  0.5028640000000  0.4962120000000  0.5737280000000 1.0
C      1  0.4281250000000  0.5010670000000  0.4883000000000 1.0
C      1  0.5766140000000  0.5091690000000  0.4906480000000 1.0
C      1  0.4238390000000  0.5071330000000  0.5113310000000 1.0
C      1  0.4888140000000  0.5726040000000  0.5029890000000 1.0
C      1  0.5136680000000  0.4325490000000  0.5022930000000 1.0
C      1  0.4920980000000  0.4271250000000  0.4965870000000 1.0
C      1  0.5740770000000  0.5145160000000  0.5044990000000 1.0
C      1  0.5093020000000  0.5076670000000  0.5669830000000 1.0
C      1  0.5016780000000  0.5705970000000  0.5096210000000 1.0
C      1  0.4272800000000  0.5120250000000  0.4980690000000 1.0
C      1  0.4260300000000  0.4880700000000  0.4931920000000 1.0
C      1  0.5777880000000  0.4899380000000  0.5090090000000 1.0
C      1  0.4898750000000  0.4941980000000  0.4148860000000 1.0
C      1  0.4903140000000  0.5001120000000  0.5777100000000 1.0
C      1  0.5058910000000  0.5024300000000  0.4286650000000 1.0
C      1  0.4971280000000  0.5702950000000  0.4901810000000 1.0
C      1  0.5009040000000  0.4278850000000  0.5082570000000 1.0
C      1  0.4987550000000  0.4327690000000  0.4835110000000 1.0
C      1  0.5249490000000  0.4639520000000  0.5474190000000 1.0
C      1  0.5439710000000  0.5254080000000  0.4659240000000 1.0
C      1  0.4656980000000  0.5465160000000  0.5254200000000 1.0
C      1  0.4755890000000  0.4641890000000  0.4495660000000 1.0
C      1  0.5233110000000  0.5375650000000  0.4533770000000 1.0
C      1  0.4741180000000  0.5366870000000  0.5481370000000 1.0
C      1  0.4541520000000  0.5251460000000  0.5347410000000 1.0
C      1  0.5481000000000  0.4728370000000  0.5389760000000 1.0
C      1  0.4540220000000  0.4760210000000  0.4608050000000 1.0
C      1  0.5347150000000  0.5478770000000  0.4747050000000 1.0
C      1  0.4651670000000  0.4553870000000  0.4728290000000 1.0
C      1  0.5366780000000  0.4532510000000  0.5251960000000 1.0
C      1  0.5466660000000  0.4644670000000  0.5256380000000 1.0
C      1  0.4633860000000  0.5253620000000  0.5465660000000 1.0
C      1  0.5248970000000  0.5485130000000  0.4626900000000 1.0
C      1  0.4550450000000  0.4662520000000  0.4731080000000 1.0
C      1  0.4540360000000  0.5374270000000  0.5249390000000 1.0
C      1  0.5456520000000  0.5383380000000  0.4749560000000 1.0
C      1  0.5332620000000  0.5252720000000  0.4551920000000 1.0
C      1  0.5369510000000  0.4738320000000  0.5485100000000 1.0
C      1  0.4637970000000  0.4751300000000  0.4496850000000 1.0
C      1  0.4754370000000  0.5467100000000  0.5375070000000 1.0
C      1  0.4764140000000  0.4546550000000  0.4614720000000 1.0
C      1  0.5251720000000  0.4539170000000  0.5362820000000 1.0
C      1  0.4466590000000  0.4674050000000  0.5231820000000 1.0
C      1  0.5230180000000  0.4443450000000  0.4698680000000 1.0
C      1  0.4664250000000  0.5228650000000  0.4395390000000 1.0
C      1  0.5614650000000  0.4601310000000  0.4794980000000 1.0
C      1  0.4390500000000  0.5321650000000  0.4763190000000 1.0
C      1  0.5586350000000  0.5353750000000  0.5253500000000 1.0
C      1  0.4863220000000  0.4416440000000  0.5266210000000 1.0
C      1  0.5224710000000  0.5576150000000  0.5351350000000 1.0
C      1  0.4752180000000  0.5608080000000  0.4672350000000 1.0
C      1  0.5365500000000  0.5220510000000  0.5554990000000 1.0
C      1  0.4733830000000  0.4822970000000  0.5588110000000 1.0
C      1  0.5334760000000  0.4731040000000  0.4489700000000 1.0
C      1  0.5266070000000  0.4615420000000  0.4527100000000 1.0
C      1  0.4718610000000  0.4413590000000  0.5196890000000 1.0
C      1  0.4409550000000  0.5206820000000  0.4672560000000 1.0
C      1  0.4806540000000  0.4693740000000  0.5587090000000 1.0
C      1  0.4781930000000  0.5317630000000  0.4417730000000 1.0
C      1  0.5277120000000  0.5330180000000  0.5552240000000 1.0
C      1  0.5332380000000  0.4422250000000  0.4800680000000 1.0
C      1  0.5352330000000  0.5585670000000  0.5245850000000 1.0
C      1  0.4673060000000  0.5593700000000  0.4796680000000 1.0
C      1  0.5548850000000  0.5256310000000  0.5365570000000 1.0
C      1  0.5614710000000  0.4808790000000  0.4617380000000 1.0
C      1  0.4473680000000  0.4810940000000  0.5303900000000 1.0
C      1  0.5016460000000  0.4924280000000  0.5502800000000 1.0
C      1  0.5519560000000  0.5053310000000  0.4966110000000 1.0
C      1  0.4953590000000  0.5477480000000  0.5049430000000 1.0
C      1  0.4944010000000  0.4937660000000  0.4529480000000 1.0
C      1  0.5034970000000  0.5040350000000  0.4533730000000 1.0
C      1  0.4914270000000  0.5026550000000  0.5492890000000 1.0
C      1  0.4484860000000  0.5043100000000  0.5050580000000 1.0
C      1  0.5533890000000  0.4951960000000  0.5055020000000 1.0
C      1  0.4499450000000  0.4953790000000  0.4949780000000 1.0
C      1  0.5044780000000  0.5479570000000  0.4948470000000 1.0
C      1  0.4903570000000  0.4511050000000  0.4990230000000 1.0
C      1  0.5005360000000  0.4515720000000  0.5097060000000 1.0
C      1  0.4481940000000  0.5498960000000  0.4504160000000 1.0
C      1  0.5548930000000  0.4428680000000  0.4636570000000 1.0
C      1  0.4526780000000  0.4540080000000  0.5458920000000 1.0
C      1  0.5569880000000  0.5601590000000  0.5351070000000 1.0
END
