TITL C-3151192-8964-93 -0.0480311801139747 1000000 -3672.35435357343 0 0 520 (C1) n - 1
REM
REM in /scratch/bkarasulu/Only-C240/Try4-Only-SYMOP24
REM
REM
REM
REM
REM
REM ./C.cell (018bbde761a0794ceee8127bb1f748ef)
REM
REM compiler GCC version 9.2.1 20190827 (Red Hat 9.2.1-1)
REM options -cpp -mtune=generic -march=x86-64 -g -O0 -fpre-include=/usr/include/finclude/math-vector-fortran.h
REM seed -1314509949 -1226746014 -1496831037 758851425 -1484492760 1764049314 1298000737 1171804867 706079427 -568402659 -1736856609 1746409979 -23007584 1541782820 2118951969 838884054 -253330086 1077441272 -2129314061 -1841179694 -1646924410 961982026 -940807206 1866719107 -1936671544 1736390404 1686129974 392319472 917443073 1844497450 1711375807 -1852112628 1771349210
REM
CELL 1.54180  100.00000  100.00000  100.00000   90.00000   90.00000   90.00000
LATT -1
SFAC C  
C      1  0.5141610000000  0.5261880000000  0.4334990000000 1.0
C      1  0.5259050000000  0.4334950000000  0.5147260000000 1.0
C      1  0.4340390000000  0.5145800000000  0.5253670000000 1.0
C      1  0.4847610000000  0.4747990000000  0.4337610000000 1.0
C      1  0.5142870000000  0.4744150000000  0.5661300000000 1.0
C      1  0.4851750000000  0.5254050000000  0.5654450000000 1.0
C      1  0.4746050000000  0.5661590000000  0.5140960000000 1.0
C      1  0.5256740000000  0.5659620000000  0.4851860000000 1.0
C      1  0.4747630000000  0.4334790000000  0.4851270000000 1.0
C      1  0.5662910000000  0.4851720000000  0.5256530000000 1.0
C      1  0.4345930000000  0.4852600000000  0.4743640000000 1.0
C      1  0.5661970000000  0.5141540000000  0.4743030000000 1.0
C      1  0.5251960000000  0.5152930000000  0.4325560000000 1.0
C      1  0.4342170000000  0.5255740000000  0.5144560000000 1.0
C      1  0.5147100000000  0.4339310000000  0.5255720000000 1.0
C      1  0.4738340000000  0.4858660000000  0.4330810000000 1.0
C      1  0.4742200000000  0.5144230000000  0.5651710000000 1.0
C      1  0.5252940000000  0.4853950000000  0.5656190000000 1.0
C      1  0.5658590000000  0.4740700000000  0.5148250000000 1.0
C      1  0.5657690000000  0.5251320000000  0.4852250000000 1.0
C      1  0.4340680000000  0.4744000000000  0.4853330000000 1.0
C      1  0.4854610000000  0.5655000000000  0.5251650000000 1.0
C      1  0.4857320000000  0.4347180000000  0.4741280000000 1.0
C      1  0.5148260000000  0.5656560000000  0.4740230000000 1.0
C      1  0.5043050000000  0.4850830000000  0.4225470000000 1.0
C      1  0.4854390000000  0.4226880000000  0.5050340000000 1.0
C      1  0.4230240000000  0.5056440000000  0.4840530000000 1.0
C      1  0.4941400000000  0.5162780000000  0.4233210000000 1.0
C      1  0.5051400000000  0.5153950000000  0.5762250000000 1.0
C      1  0.4943330000000  0.4851360000000  0.5765710000000 1.0
C      1  0.5147780000000  0.5765310000000  0.5050200000000 1.0
C      1  0.4856280000000  0.5768220000000  0.4944710000000 1.0
C      1  0.5155060000000  0.4228920000000  0.4941730000000 1.0
C      1  0.5767370000000  0.4936630000000  0.4846290000000 1.0
C      1  0.4231240000000  0.4946260000000  0.5154000000000 1.0
C      1  0.5769220000000  0.5049180000000  0.5146670000000 1.0
C      1  0.4852410000000  0.5058810000000  0.4226780000000 1.0
C      1  0.4229950000000  0.4845140000000  0.5059920000000 1.0
C      1  0.5064120000000  0.4233500000000  0.4836980000000 1.0
C      1  0.5138810000000  0.4950460000000  0.4221640000000 1.0
C      1  0.5153600000000  0.5060820000000  0.5764010000000 1.0
C      1  0.4839870000000  0.4943130000000  0.5763820000000 1.0
C      1  0.5768090000000  0.5152590000000  0.5054750000000 1.0
C      1  0.5769520000000  0.4837790000000  0.4943480000000 1.0
C      1  0.4229600000000  0.5156270000000  0.4937840000000 1.0
C      1  0.4951050000000  0.5768740000000  0.4843360000000 1.0
C      1  0.4944870000000  0.4227880000000  0.5154980000000 1.0
C      1  0.5055980000000  0.5764810000000  0.5153820000000 1.0
C      1  0.4590910000000  0.4813290000000  0.4704220000000 1.0
C      1  0.4764760000000  0.4686300000000  0.4578520000000 1.0
C      1  0.4702560000000  0.4586460000000  0.4811790000000 1.0
C      1  0.5410560000000  0.5184770000000  0.4697290000000 1.0
C      1  0.4590720000000  0.5184110000000  0.5290990000000 1.0
C      1  0.5410230000000  0.4811600000000  0.5294500000000 1.0
C      1  0.5184740000000  0.5295440000000  0.4585840000000 1.0
C      1  0.4814230000000  0.5292370000000  0.5404050000000 1.0
C      1  0.5184880000000  0.4701920000000  0.5410030000000 1.0
C      1  0.5294800000000  0.5408010000000  0.4809920000000 1.0
C      1  0.4704690000000  0.5409300000000  0.5180320000000 1.0
C      1  0.5296150000000  0.4586350000000  0.5186170000000 1.0
C      1  0.4769830000000  0.4587550000000  0.4679800000000 1.0
C      1  0.4698780000000  0.4817980000000  0.4581100000000 1.0
C      1  0.4588140000000  0.4699960000000  0.4816880000000 1.0
C      1  0.5182570000000  0.5407850000000  0.4697740000000 1.0
C      1  0.5183520000000  0.4587530000000  0.5298680000000 1.0
C      1  0.4817390000000  0.5406600000000  0.5292120000000 1.0
C      1  0.5297280000000  0.5183810000000  0.4582450000000 1.0
C      1  0.5297040000000  0.4814240000000  0.5407940000000 1.0
C      1  0.4701930000000  0.5180410000000  0.5404120000000 1.0
C      1  0.5408620000000  0.5295150000000  0.4810160000000 1.0
C      1  0.5409540000000  0.4698620000000  0.5183170000000 1.0
C      1  0.4591180000000  0.5297020000000  0.5178980000000 1.0
C      1  0.4770830000000  0.4421600000000  0.4521920000000 1.0
C      1  0.4422820000000  0.4523190000000  0.4766830000000 1.0
C      1  0.4516700000000  0.4770680000000  0.4417980000000 1.0
C      1  0.5231570000000  0.5573920000000  0.4527710000000 1.0
C      1  0.4769990000000  0.5575440000000  0.5465430000000 1.0
C      1  0.5228950000000  0.4419900000000  0.5471430000000 1.0
C      1  0.5579240000000  0.5467310000000  0.4767340000000 1.0
C      1  0.4423150000000  0.5470940000000  0.5226710000000 1.0
C      1  0.5578420000000  0.4526730000000  0.5234060000000 1.0
C      1  0.5476410000000  0.5230460000000  0.4415580000000 1.0
C      1  0.4529430000000  0.5229470000000  0.5572410000000 1.0
C      1  0.5468140000000  0.4767860000000  0.5578120000000 1.0
C      1  0.4423400000000  0.4766510000000  0.4528230000000 1.0
C      1  0.4523070000000  0.4418460000000  0.4767620000000 1.0
C      1  0.4768570000000  0.4525380000000  0.4418930000000 1.0
C      1  0.5579980000000  0.5227530000000  0.4519610000000 1.0
C      1  0.5573640000000  0.4768990000000  0.5477250000000 1.0
C      1  0.4425980000000  0.5227940000000  0.5470010000000 1.0
C      1  0.5477150000000  0.5571660000000  0.4769280000000 1.0
C      1  0.5476530000000  0.4422600000000  0.5231200000000 1.0
C      1  0.4524870000000  0.5575380000000  0.5224240000000 1.0
C      1  0.5229950000000  0.5472560000000  0.4423660000000 1.0
C      1  0.5226450000000  0.4522090000000  0.5575630000000 1.0
C      1  0.4771350000000  0.5472780000000  0.5568630000000 1.0
C      1  0.5145610000000  0.5650710000000  0.4958450000000 1.0
C      1  0.5655510000000  0.4957190000000  0.5144060000000 1.0
C      1  0.4959110000000  0.5144340000000  0.5649410000000 1.0
C      1  0.4858480000000  0.4341070000000  0.4958830000000 1.0
C      1  0.5150030000000  0.4339930000000  0.5038770000000 1.0
C      1  0.4856790000000  0.5652420000000  0.5034130000000 1.0
C      1  0.4344040000000  0.5038400000000  0.5144040000000 1.0
C      1  0.5655410000000  0.5032510000000  0.4853300000000 1.0
C      1  0.4345250000000  0.4962590000000  0.4854720000000 1.0
C      1  0.5035590000000  0.4854470000000  0.5652330000000 1.0
C      1  0.4958010000000  0.4856170000000  0.4341840000000 1.0
C      1  0.5034970000000  0.5151890000000  0.4343130000000 1.0
C      1  0.5652960000000  0.5141880000000  0.4962050000000 1.0
C      1  0.4964650000000  0.5649030000000  0.5143630000000 1.0
C      1  0.5143740000000  0.4964000000000  0.5650370000000 1.0
C      1  0.4344070000000  0.4854390000000  0.4963520000000 1.0
C      1  0.4344530000000  0.5146500000000  0.5034080000000 1.0
C      1  0.5654410000000  0.4847950000000  0.5036500000000 1.0
C      1  0.5038320000000  0.4342770000000  0.5145880000000 1.0
C      1  0.5038000000000  0.5649850000000  0.4848910000000 1.0
C      1  0.4968620000000  0.4346820000000  0.4850790000000 1.0
C      1  0.4850730000000  0.5034480000000  0.5648020000000 1.0
C      1  0.4851430000000  0.4965320000000  0.4340590000000 1.0
C      1  0.5143780000000  0.5042900000000  0.4336540000000 1.0
C      1  0.5562790000000  0.4344470000000  0.4714290000000 1.0
C      1  0.4371940000000  0.4693070000000  0.5551110000000 1.0
C      1  0.4603340000000  0.5479670000000  0.4439950000000 1.0
C      1  0.4523170000000  0.5553080000000  0.4711880000000 1.0
C      1  0.5485030000000  0.5544860000000  0.5266830000000 1.0
C      1  0.4517760000000  0.4453640000000  0.5262880000000 1.0
C      1  0.5539720000000  0.5265410000000  0.5475160000000 1.0
C      1  0.4398140000000  0.5328410000000  0.4469310000000 1.0
C      1  0.5568030000000  0.4632220000000  0.4493370000000 1.0
C      1  0.5297360000000  0.4534920000000  0.4450990000000 1.0
C      1  0.4727160000000  0.4512140000000  0.5544830000000 1.0
C      1  0.5304150000000  0.5554270000000  0.5621800000000 1.0
C      1  0.4427480000000  0.5497340000000  0.4627870000000 1.0
C      1  0.4629120000000  0.4427540000000  0.5492240000000 1.0
C      1  0.5470270000000  0.4713080000000  0.4436710000000 1.0
C      1  0.5601700000000  0.4461080000000  0.4650720000000 1.0
C      1  0.5569770000000  0.5494190000000  0.5365270000000 1.0
C      1  0.4435820000000  0.4507670000000  0.5362240000000 1.0
C      1  0.5375050000000  0.5586510000000  0.5507490000000 1.0
C      1  0.5387460000000  0.4445740000000  0.4511650000000 1.0
C      1  0.4694440000000  0.5542220000000  0.4528870000000 1.0
C      1  0.4449810000000  0.5223400000000  0.4388810000000 1.0
C      1  0.4486660000000  0.4622800000000  0.5583700000000 1.0
C      1  0.5487810000000  0.5365650000000  0.5557200000000 1.0
C      1  0.4795170000000  0.4995700000000  0.5095660000000 1.0
C      1  0.4999900000000  0.5094610000000  0.4789410000000 1.0
C      1  0.5100110000000  0.4787200000000  0.4993460000000 1.0
C      1  0.5203700000000  0.4994520000000  0.5094110000000 1.0
C      1  0.4796670000000  0.4993950000000  0.4893960000000 1.0
C      1  0.5203420000000  0.4992620000000  0.4889990000000 1.0
C      1  0.5000210000000  0.4888760000000  0.4788920000000 1.0
C      1  0.4999280000000  0.4893870000000  0.5199700000000 1.0
C      1  0.4999920000000  0.5096480000000  0.5197470000000 1.0
C      1  0.4897880000000  0.5199970000000  0.4992700000000 1.0
C      1  0.5101110000000  0.5199310000000  0.4993480000000 1.0
C      1  0.4897990000000  0.4789820000000  0.4996590000000 1.0
C      1  0.4999490000000  0.4790740000000  0.5098600000000 1.0
C      1  0.5102390000000  0.4990630000000  0.4786410000000 1.0
C      1  0.4795680000000  0.5098270000000  0.4993080000000 1.0
C      1  0.4999820000000  0.5198810000000  0.5095640000000 1.0
C      1  0.4997890000000  0.4785570000000  0.4890450000000 1.0
C      1  0.4999420000000  0.5198390000000  0.4890560000000 1.0
C      1  0.4898970000000  0.4991980000000  0.4791890000000 1.0
C      1  0.4896960000000  0.4995230000000  0.5197710000000 1.0
C      1  0.5102540000000  0.4995260000000  0.5197270000000 1.0
C      1  0.5202160000000  0.4891060000000  0.4992610000000 1.0
C      1  0.5202460000000  0.5096510000000  0.4992150000000 1.0
C      1  0.4796130000000  0.4891680000000  0.4996110000000 1.0
C      1  0.4950670000000  0.5521460000000  0.4828820000000 1.0
C      1  0.5526680000000  0.4829620000000  0.4950650000000 1.0
C      1  0.4833190000000  0.4948880000000  0.5519790000000 1.0
C      1  0.5058600000000  0.4473840000000  0.4843810000000 1.0
C      1  0.4952490000000  0.4470540000000  0.5162730000000 1.0
C      1  0.5049060000000  0.5520410000000  0.5161230000000 1.0
C      1  0.4474900000000  0.5165830000000  0.4952690000000 1.0
C      1  0.5524440000000  0.5158850000000  0.5045210000000 1.0
C      1  0.4472700000000  0.4834230000000  0.5045080000000 1.0
C      1  0.5162390000000  0.5045480000000  0.5521290000000 1.0
C      1  0.4832000000000  0.5044970000000  0.4469790000000 1.0
C      1  0.5171640000000  0.4960080000000  0.4462700000000 1.0
C      1  0.5527350000000  0.4949020000000  0.4833520000000 1.0
C      1  0.4835370000000  0.5523260000000  0.4949200000000 1.0
C      1  0.4952620000000  0.4833100000000  0.5521320000000 1.0
C      1  0.4475730000000  0.5046340000000  0.4839220000000 1.0
C      1  0.4474410000000  0.4953530000000  0.5160070000000 1.0
C      1  0.5524850000000  0.5039370000000  0.5161900000000 1.0
C      1  0.5172260000000  0.4469610000000  0.4958630000000 1.0
C      1  0.5164830000000  0.5520690000000  0.5041950000000 1.0
C      1  0.4836080000000  0.4469270000000  0.5042830000000 1.0
C      1  0.5043540000000  0.5160930000000  0.5519690000000 1.0
C      1  0.5055590000000  0.4847460000000  0.4466070000000 1.0
C      1  0.4951050000000  0.5162900000000  0.4472260000000 1.0
C      1  0.5305430000000  0.4981900000000  0.4787210000000 1.0
C      1  0.4984180000000  0.4793470000000  0.5304620000000 1.0
C      1  0.4796090000000  0.5303830000000  0.4980660000000 1.0
C      1  0.4696660000000  0.5003030000000  0.4790060000000 1.0
C      1  0.5306180000000  0.5009510000000  0.5197850000000 1.0
C      1  0.4692950000000  0.4982080000000  0.5198180000000 1.0
C      1  0.5013570000000  0.5198910000000  0.5300060000000 1.0
C      1  0.4984650000000  0.5199970000000  0.4690760000000 1.0
C      1  0.5001310000000  0.4787190000000  0.4682830000000 1.0
C      1  0.5204860000000  0.4687750000000  0.4985300000000 1.0
C      1  0.4795320000000  0.4686840000000  0.5008770000000 1.0
C      1  0.5203950000000  0.5302310000000  0.5008510000000 1.0
C      1  0.4983030000000  0.5300190000000  0.4788450000000 1.0
C      1  0.4792260000000  0.4981850000000  0.5297420000000 1.0
C      1  0.5303340000000  0.4788060000000  0.4982400000000 1.0
C      1  0.4995830000000  0.4688740000000  0.4780390000000 1.0
C      1  0.5013400000000  0.5298160000000  0.5200910000000 1.0
C      1  0.4985290000000  0.4694030000000  0.5206150000000 1.0
C      1  0.5206800000000  0.5010030000000  0.5297030000000 1.0
C      1  0.5207470000000  0.4982130000000  0.4686230000000 1.0
C      1  0.4795400000000  0.4999610000000  0.4690610000000 1.0
C      1  0.4697240000000  0.5204220000000  0.4978850000000 1.0
C      1  0.4696550000000  0.4787000000000  0.5009610000000 1.0
C      1  0.5301250000000  0.5201910000000  0.5005680000000 1.0
C      1  0.4227190000000  0.5091540000000  0.4701340000000 1.0
C      1  0.5083260000000  0.4708300000000  0.4209400000000 1.0
C      1  0.4713000000000  0.4206520000000  0.5078610000000 1.0
C      1  0.5785440000000  0.4901180000000  0.4706500000000 1.0
C      1  0.4220280000000  0.4916340000000  0.5296860000000 1.0
C      1  0.5789140000000  0.5081160000000  0.5287620000000 1.0
C      1  0.4893620000000  0.5305440000000  0.4226200000000 1.0
C      1  0.5080810000000  0.5297190000000  0.5773980000000 1.0
C      1  0.4912710000000  0.4710450000000  0.5786310000000 1.0
C      1  0.5288350000000  0.5785610000000  0.5082140000000 1.0
C      1  0.4715770000000  0.5792230000000  0.4909780000000 1.0
C      1  0.5297110000000  0.4216970000000  0.4914940000000 1.0
C      1  0.5106640000000  0.4230520000000  0.4698350000000 1.0
C      1  0.4714610000000  0.5089890000000  0.4204640000000 1.0
C      1  0.4219380000000  0.4706600000000  0.5095790000000 1.0
C      1  0.4909640000000  0.5784630000000  0.4705860000000 1.0
C      1  0.4901010000000  0.4217710000000  0.5292470000000 1.0
C      1  0.5099450000000  0.5775250000000  0.5292110000000 1.0
C      1  0.5275220000000  0.4912130000000  0.4191860000000 1.0
C      1  0.5291040000000  0.5102790000000  0.5772970000000 1.0
C      1  0.4701500000000  0.4900790000000  0.5773970000000 1.0
C      1  0.5778040000000  0.5290370000000  0.5098060000000 1.0
C      1  0.5781770000000  0.4699450000000  0.4906430000000 1.0
C      1  0.4220870000000  0.5295100000000  0.4902850000000 1.0
C      1  0.5291510000000  0.5153910000000  0.4175660000000 1.0
C      1  0.5142510000000  0.4200160000000  0.5311750000000 1.0
C      1  0.4203480000000  0.5313870000000  0.5142860000000 1.0
C      1  0.4691220000000  0.4857480000000  0.4183960000000 1.0
C      1  0.5310440000000  0.4862540000000  0.5794590000000 1.0
C      1  0.4684100000000  0.5140700000000  0.5790480000000 1.0
C      1  0.4861110000000  0.5793020000000  0.5311170000000 1.0
C      1  0.5146000000000  0.5796690000000  0.4682440000000 1.0
C      1  0.4866830000000  0.4210520000000  0.4677670000000 1.0
C      1  0.5797140000000  0.4681870000000  0.5144790000000 1.0
C      1  0.4198710000000  0.4697500000000  0.4849320000000 1.0
C      1  0.5796960000000  0.5308560000000  0.4858520000000 1.0
C      1  0.5128390000000  0.5326070000000  0.4196320000000 1.0
C      1  0.4196660000000  0.5152050000000  0.5309470000000 1.0
C      1  0.5312060000000  0.4191240000000  0.5151820000000 1.0
C      1  0.4849480000000  0.4686090000000  0.4196620000000 1.0
C      1  0.4845160000000  0.5307970000000  0.5798860000000 1.0
C      1  0.5147470000000  0.4696780000000  0.5809390000000 1.0
C      1  0.5810240000000  0.4847320000000  0.5307040000000 1.0
C      1  0.5811570000000  0.5141860000000  0.4695970000000 1.0
C      1  0.4211820000000  0.4856070000000  0.4673990000000 1.0
C      1  0.4698720000000  0.5809810000000  0.5145480000000 1.0
C      1  0.4703540000000  0.4185940000000  0.4842690000000 1.0
C      1  0.5307280000000  0.5806770000000  0.4848640000000 1.0
C      1  0.4970340000000  0.5364080000000  0.5817410000000 1.0
C      1  0.5352460000000  0.5839450000000  0.4975150000000 1.0
C      1  0.5843400000000  0.4973890000000  0.5351530000000 1.0
C      1  0.5021270000000  0.4649580000000  0.5841580000000 1.0
C      1  0.4976490000000  0.4634650000000  0.4170500000000 1.0
C      1  0.4998060000000  0.5378130000000  0.4181110000000 1.0
C      1  0.4655920000000  0.4150870000000  0.4968120000000 1.0
C      1  0.5367870000000  0.4177700000000  0.5024770000000 1.0
C      1  0.4654480000000  0.5844960000000  0.5019040000000 1.0
C      1  0.4179530000000  0.5026600000000  0.5365730000000 1.0
C      1  0.5836670000000  0.5012970000000  0.4649270000000 1.0
C      1  0.4232170000000  0.4988700000000  0.4603890000000 1.0
C      1  0.5379870000000  0.4993840000000  0.5795120000000 1.0
C      1  0.5799010000000  0.5378940000000  0.4988960000000 1.0
C      1  0.4990620000000  0.5795660000000  0.5381190000000 1.0
C      1  0.4613340000000  0.5010620000000  0.5793690000000 1.0
C      1  0.4650490000000  0.4984810000000  0.4146670000000 1.0
C      1  0.5324790000000  0.5023990000000  0.4133220000000 1.0
C      1  0.4195490000000  0.4623960000000  0.4981580000000 1.0
C      1  0.4200030000000  0.5383750000000  0.5012000000000 1.0
C      1  0.5802690000000  0.4611690000000  0.5015880000000 1.0
C      1  0.5010400000000  0.4197890000000  0.5381210000000 1.0
C      1  0.5015790000000  0.5805770000000  0.4615110000000 1.0
C      1  0.4998210000000  0.4212390000000  0.4608260000000 1.0
C      1  0.5212960000000  0.4336180000000  0.4683340000000 1.0
C      1  0.4326310000000  0.4685170000000  0.5202670000000 1.0
C      1  0.4686730000000  0.5181860000000  0.4321520000000 1.0
C      1  0.4805630000000  0.5679840000000  0.4688190000000 1.0
C      1  0.5206390000000  0.5672040000000  0.5309420000000 1.0
C      1  0.4792260000000  0.4321830000000  0.5310080000000 1.0
C      1  0.5673110000000  0.5308550000000  0.5204770000000 1.0
C      1  0.4327270000000  0.5315330000000  0.4798590000000 1.0
C      1  0.5678570000000  0.4678460000000  0.4800750000000 1.0
C      1  0.5305940000000  0.4813060000000  0.4304590000000 1.0
C      1  0.4684140000000  0.4792310000000  0.5671560000000 1.0
C      1  0.5309570000000  0.5207580000000  0.5666160000000 1.0
C      1  0.4327630000000  0.5197520000000  0.4688930000000 1.0
C      1  0.4684790000000  0.4316550000000  0.5176340000000 1.0
C      1  0.5186600000000  0.4689940000000  0.4315100000000 1.0
C      1  0.5676160000000  0.4798180000000  0.4680000000000 1.0
C      1  0.5677840000000  0.5177040000000  0.5312240000000 1.0
C      1  0.4326000000000  0.4813270000000  0.5317770000000 1.0
C      1  0.5313520000000  0.5674330000000  0.5178370000000 1.0
C      1  0.5321420000000  0.4323970000000  0.4813390000000 1.0
C      1  0.4690600000000  0.5682850000000  0.4809630000000 1.0
C      1  0.4786180000000  0.5319090000000  0.4332260000000 1.0
C      1  0.4815690000000  0.4684180000000  0.5675130000000 1.0
C      1  0.5182480000000  0.5320190000000  0.5667410000000 1.0
C      1  0.5544620000000  0.5355420000000  0.4853290000000 1.0
C      1  0.5357850000000  0.4855010000000  0.5543630000000 1.0
C      1  0.4856670000000  0.5541890000000  0.5354300000000 1.0
C      1  0.4453000000000  0.4636510000000  0.4854290000000 1.0
C      1  0.5545540000000  0.4637520000000  0.5146310000000 1.0
C      1  0.4456150000000  0.5359850000000  0.5140590000000 1.0
C      1  0.4639630000000  0.5141440000000  0.5539130000000 1.0
C      1  0.5362590000000  0.5143710000000  0.4440740000000 1.0
C      1  0.4623400000000  0.4867550000000  0.4439600000000 1.0
C      1  0.5142560000000  0.4452380000000  0.5359670000000 1.0
C      1  0.4852930000000  0.4463240000000  0.4639870000000 1.0
C      1  0.5141540000000  0.5544250000000  0.4636070000000 1.0
C      1  0.5364420000000  0.5546540000000  0.4857720000000 1.0
C      1  0.4858450000000  0.5360060000000  0.5541240000000 1.0
C      1  0.5549230000000  0.4856810000000  0.5363750000000 1.0
C      1  0.4633790000000  0.4443010000000  0.4859280000000 1.0
C      1  0.4637230000000  0.5549920000000  0.5135200000000 1.0
C      1  0.5365470000000  0.4448220000000  0.5141560000000 1.0
C      1  0.5137780000000  0.4634550000000  0.5549430000000 1.0
C      1  0.5137510000000  0.5362900000000  0.4450230000000 1.0
C      1  0.4853920000000  0.4644710000000  0.4453620000000 1.0
C      1  0.4453450000000  0.5139340000000  0.5358360000000 1.0
C      1  0.4459990000000  0.4850860000000  0.4643510000000 1.0
C      1  0.5548360000000  0.5141750000000  0.4635350000000 1.0
C      1  0.4319980000000  0.4707230000000  0.5427490000000 1.0
C      1  0.4647750000000  0.5387540000000  0.4342380000000 1.0
C      1  0.5431760000000  0.4311060000000  0.4711240000000 1.0
C      1  0.5666090000000  0.5278840000000  0.5419570000000 1.0
C      1  0.4315180000000  0.5302860000000  0.4581780000000 1.0
C      1  0.5669220000000  0.4678380000000  0.4584060000000 1.0
C      1  0.5302760000000  0.4596160000000  0.4324000000000 1.0
C      1  0.4712340000000  0.4576880000000  0.5666220000000 1.0
C      1  0.5288040000000  0.5431040000000  0.5673350000000 1.0
C      1  0.4591180000000  0.5674200000000  0.4698360000000 1.0
C      1  0.5421160000000  0.5666500000000  0.5281190000000 1.0
C      1  0.4576460000000  0.4328420000000  0.5277200000000 1.0
C      1  0.4658730000000  0.4330820000000  0.5392600000000 1.0
C      1  0.5401030000000  0.4698650000000  0.4314920000000 1.0
C      1  0.4327120000000  0.5408240000000  0.4676210000000 1.0
C      1  0.5338330000000  0.5669750000000  0.5395250000000 1.0
C      1  0.5344180000000  0.4345180000000  0.4602660000000 1.0
C      1  0.4688110000000  0.5668180000000  0.4594340000000 1.0
C      1  0.4567470000000  0.5269160000000  0.4323410000000 1.0
C      1  0.4598300000000  0.4659980000000  0.5668250000000 1.0
C      1  0.5393070000000  0.5335750000000  0.5656740000000 1.0
C      1  0.5682700000000  0.4578750000000  0.4685320000000 1.0
C      1  0.5664760000000  0.5393280000000  0.5336650000000 1.0
C      1  0.4335460000000  0.4602040000000  0.5331830000000 1.0
C      1  0.4581660000000  0.4818720000000  0.4936690000000 1.0
C      1  0.4825590000000  0.4929150000000  0.4572490000000 1.0
C      1  0.4961890000000  0.4580920000000  0.4855690000000 1.0
C      1  0.5416410000000  0.5172260000000  0.4933620000000 1.0
C      1  0.4585420000000  0.5179120000000  0.5059640000000 1.0
C      1  0.5416120000000  0.4815700000000  0.5058920000000 1.0
C      1  0.5181770000000  0.5064750000000  0.4575540000000 1.0
C      1  0.4819670000000  0.5057870000000  0.5410520000000 1.0
C      1  0.5178020000000  0.4936080000000  0.5412120000000 1.0
C      1  0.5059480000000  0.5412740000000  0.4816490000000 1.0
C      1  0.4938690000000  0.5412410000000  0.5174280000000 1.0
C      1  0.5061180000000  0.4580360000000  0.5178610000000 1.0
C      1  0.4829210000000  0.4575070000000  0.4928630000000 1.0
C      1  0.4958720000000  0.4855080000000  0.4572190000000 1.0
C      1  0.4582240000000  0.4932430000000  0.4825980000000 1.0
C      1  0.5175110000000  0.5414180000000  0.4928890000000 1.0
C      1  0.5179560000000  0.4578320000000  0.5068990000000 1.0
C      1  0.4823730000000  0.5415480000000  0.5060710000000 1.0
C      1  0.5064330000000  0.5174790000000  0.4578690000000 1.0
C      1  0.5065660000000  0.4821410000000  0.5415060000000 1.0
C      1  0.4932840000000  0.5172340000000  0.5411470000000 1.0
C      1  0.5418080000000  0.5059380000000  0.4819460000000 1.0
C      1  0.5417360000000  0.4928050000000  0.5173140000000 1.0
C      1  0.4583060000000  0.5064670000000  0.5171990000000 1.0
C      1  0.5477450000000  0.5574920000000  0.4624530000000 1.0
C      1  0.5576280000000  0.4624020000000  0.5478760000000 1.0
C      1  0.4626570000000  0.5474560000000  0.5572550000000 1.0
C      1  0.4522880000000  0.4415970000000  0.4621370000000 1.0
C      1  0.5475440000000  0.4419820000000  0.5376200000000 1.0
C      1  0.4524540000000  0.5577530000000  0.5369380000000 1.0
C      1  0.4422640000000  0.5372940000000  0.5471240000000 1.0
C      1  0.5582160000000  0.5373780000000  0.4520470000000 1.0
C      1  0.4419630000000  0.4621030000000  0.4523420000000 1.0
C      1  0.5371440000000  0.4522120000000  0.5578920000000 1.0
C      1  0.4621800000000  0.4523540000000  0.4418190000000 1.0
C      1  0.5375500000000  0.5473560000000  0.4420320000000 1.0
C      1  0.5582610000000  0.5470720000000  0.4621230000000 1.0
C      1  0.4624360000000  0.5578290000000  0.5467490000000 1.0
C      1  0.5469530000000  0.4622060000000  0.5580820000000 1.0
C      1  0.4419400000000  0.4520770000000  0.4621090000000 1.0
C      1  0.4421250000000  0.5472050000000  0.5372240000000 1.0
C      1  0.5578890000000  0.4525250000000  0.5379640000000 1.0
C      1  0.5374850000000  0.4418380000000  0.5473650000000 1.0
C      1  0.5376610000000  0.5576720000000  0.4526850000000 1.0
C      1  0.4622190000000  0.4417430000000  0.4521300000000 1.0
C      1  0.4527930000000  0.5375160000000  0.5574640000000 1.0
C      1  0.4520870000000  0.4623280000000  0.4416590000000 1.0
C      1  0.5476120000000  0.5375450000000  0.4417260000000 1.0
C      1  0.5532160000000  0.5303060000000  0.5117660000000 1.0
C      1  0.5305720000000  0.5115860000000  0.5529230000000 1.0
C      1  0.5121700000000  0.5530200000000  0.5306610000000 1.0
C      1  0.4464510000000  0.4689220000000  0.5114430000000 1.0
C      1  0.5536030000000  0.4685610000000  0.4881270000000 1.0
C      1  0.4468910000000  0.5310060000000  0.4881280000000 1.0
C      1  0.4687590000000  0.4876020000000  0.5529450000000 1.0
C      1  0.5312690000000  0.4889510000000  0.4447500000000 1.0
C      1  0.4690470000000  0.5111240000000  0.4466240000000 1.0
C      1  0.4878210000000  0.4462820000000  0.5305600000000 1.0
C      1  0.5123130000000  0.4474600000000  0.4691750000000 1.0
C      1  0.4880470000000  0.5538440000000  0.4685800000000 1.0
C      1  0.5310480000000  0.5530860000000  0.5106610000000 1.0
C      1  0.5110490000000  0.5308440000000  0.5522020000000 1.0
C      1  0.5534330000000  0.5103380000000  0.5306650000000 1.0
C      1  0.4690220000000  0.4459850000000  0.5104410000000 1.0
C      1  0.4689720000000  0.5537790000000  0.4884620000000 1.0
C      1  0.5317850000000  0.4468500000000  0.4888100000000 1.0
C      1  0.4888150000000  0.4687030000000  0.5532120000000 1.0
C      1  0.4880430000000  0.5308830000000  0.4471340000000 1.0
C      1  0.5114620000000  0.4696150000000  0.4459190000000 1.0
C      1  0.4471750000000  0.4885920000000  0.5307120000000 1.0
C      1  0.4473130000000  0.5113470000000  0.4698040000000 1.0
C      1  0.5535640000000  0.4882800000000  0.4686940000000 1.0
C      1  0.4587810000000  0.4479890000000  0.4995160000000 1.0
C      1  0.4476300000000  0.4993090000000  0.4594850000000 1.0
C      1  0.4996890000000  0.4603700000000  0.4487140000000 1.0
C      1  0.5410230000000  0.5510060000000  0.4995810000000 1.0
C      1  0.4590020000000  0.5516840000000  0.4996600000000 1.0
C      1  0.5414050000000  0.4483980000000  0.5003410000000 1.0
C      1  0.5533560000000  0.5000890000000  0.4577200000000 1.0
C      1  0.4488730000000  0.5000310000000  0.5404470000000 1.0
C      1  0.5513270000000  0.4994430000000  0.5408800000000 1.0
C      1  0.4996670000000  0.5406860000000  0.4486730000000 1.0
C      1  0.4996930000000  0.5406050000000  0.5505080000000 1.0
C      1  0.4999680000000  0.4587410000000  0.5512610000000 1.0
C      1  0.4465240000000  0.4569390000000  0.4997250000000 1.0
C      1  0.5001380000000  0.4480540000000  0.4574810000000 1.0
C      1  0.4570350000000  0.5009380000000  0.4470450000000 1.0
C      1  0.5531890000000  0.5421430000000  0.4998620000000 1.0
C      1  0.5535640000000  0.4569240000000  0.5002860000000 1.0
C      1  0.4468140000000  0.5426950000000  0.4995880000000 1.0
C      1  0.4994170000000  0.5531990000000  0.4568480000000 1.0
C      1  0.4997060000000  0.4464570000000  0.5425090000000 1.0
C      1  0.5000660000000  0.5529880000000  0.5422250000000 1.0
C      1  0.5422860000000  0.5001350000000  0.4455890000000 1.0
C      1  0.5424500000000  0.4998770000000  0.5530690000000 1.0
C      1  0.4571510000000  0.4997310000000  0.5528130000000 1.0
C      1  0.4432860000000  0.5082550000000  0.4423300000000 1.0
C      1  0.5012180000000  0.4235380000000  0.4465580000000 1.0
C      1  0.4211590000000  0.4480650000000  0.4990670000000 1.0
C      1  0.5554730000000  0.5000570000000  0.4366500000000 1.0
C      1  0.4470160000000  0.4998160000000  0.5775120000000 1.0
C      1  0.5523690000000  0.5006310000000  0.5781700000000 1.0
C      1  0.5000990000000  0.5776930000000  0.4474190000000 1.0
C      1  0.5001780000000  0.5776660000000  0.5524210000000 1.0
C      1  0.4996200000000  0.4213640000000  0.5524510000000 1.0
C      1  0.5782410000000  0.5522080000000  0.5000740000000 1.0
C      1  0.4216700000000  0.5527190000000  0.4995210000000 1.0
C      1  0.5783160000000  0.4468430000000  0.5006350000000 1.0
C      1  0.5008370000000  0.4363710000000  0.4477510000000 1.0
C      1  0.4346400000000  0.5014000000000  0.4516070000000 1.0
C      1  0.4339790000000  0.4481760000000  0.4993590000000 1.0
C      1  0.4984230000000  0.5649590000000  0.4465100000000 1.0
C      1  0.4998290000000  0.4341710000000  0.5515520000000 1.0
C      1  0.4996940000000  0.5648420000000  0.5518440000000 1.0
C      1  0.5638930000000  0.5005570000000  0.4459680000000 1.0
C      1  0.5513720000000  0.5002870000000  0.5653560000000 1.0
C      1  0.4475880000000  0.5002120000000  0.5646900000000 1.0
C      1  0.5654300000000  0.5512490000000  0.4998060000000 1.0
C      1  0.5654620000000  0.4473370000000  0.5008850000000 1.0
C      1  0.4344670000000  0.5514960000000  0.4993670000000 1.0
C      1  0.4677620000000  0.5218670000000  0.4575890000000 1.0
C      1  0.5222410000000  0.4585380000000  0.4681060000000 1.0
C      1  0.4579430000000  0.4680720000000  0.5211420000000 1.0
C      1  0.5353070000000  0.4766060000000  0.4540910000000 1.0
C      1  0.4671400000000  0.4767050000000  0.5424220000000 1.0
C      1  0.5314290000000  0.5211870000000  0.5414500000000 1.0
C      1  0.4758310000000  0.5449480000000  0.4646180000000 1.0
C      1  0.5230090000000  0.5424910000000  0.5323390000000 1.0
C      1  0.4774630000000  0.4570680000000  0.5315140000000 1.0
C      1  0.5424590000000  0.5314350000000  0.5220430000000 1.0
C      1  0.4580150000000  0.5319310000000  0.4779900000000 1.0
C      1  0.5426390000000  0.4676360000000  0.4773590000000 1.0
C      1  0.5240200000000  0.4653940000000  0.4546630000000 1.0
C      1  0.4580050000000  0.5219110000000  0.4678040000000 1.0
C      1  0.4656420000000  0.4555560000000  0.5224160000000 1.0
C      1  0.4779390000000  0.5316010000000  0.4581650000000 1.0
C      1  0.4766510000000  0.4652210000000  0.5437420000000 1.0
C      1  0.5223320000000  0.5319990000000  0.5417310000000 1.0
C      1  0.5422790000000  0.4781260000000  0.4675400000000 1.0
C      1  0.5439760000000  0.5224340000000  0.5339080000000 1.0
C      1  0.4576710000000  0.4772490000000  0.5319230000000 1.0
C      1  0.5344810000000  0.5437230000000  0.5228570000000 1.0
C      1  0.5329320000000  0.4574830000000  0.4774590000000 1.0
C      1  0.4647600000000  0.5451090000000  0.4761690000000 1.0
C      1  0.5234060000000  0.5270600000000  0.4130700000000 1.0
C      1  0.4758490000000  0.5863920000000  0.5258820000000 1.0
C      1  0.5867060000000  0.5254250000000  0.4755620000000 1.0
C      1  0.5259230000000  0.4758710000000  0.5864840000000 1.0
C      1  0.5248960000000  0.4131770000000  0.5261380000000 1.0
C      1  0.4766380000000  0.4135380000000  0.4729130000000 1.0
C      1  0.5249590000000  0.5864510000000  0.4736450000000 1.0
C      1  0.4140040000000  0.4755950000000  0.4737260000000 1.0
C      1  0.5865930000000  0.4734110000000  0.5248780000000 1.0
C      1  0.4135780000000  0.5261680000000  0.5248440000000 1.0
C      1  0.4735520000000  0.5246150000000  0.5858900000000 1.0
C      1  0.4743400000000  0.4742610000000  0.4132500000000 1.0
C      1  0.5520160000000  0.4501710000000  0.4536800000000 1.0
C      1  0.4508730000000  0.4510750000000  0.5486440000000 1.0
C      1  0.4471760000000  0.5449470000000  0.4497020000000 1.0
C      1  0.5486570000000  0.5489570000000  0.5485430000000 1.0
END
