TITL C-3151192-8964-18 -6.24015614067318 1000000 -3733.57857923267 0 0 520 (C1) n - 1
REM
REM in /scratch/bkarasulu/Only-C240/Try4-Only-SYMOP24
REM
REM
REM
REM
REM
REM ./C.cell (018bbde761a0794ceee8127bb1f748ef)
REM
REM compiler GCC version 9.2.1 20190827 (Red Hat 9.2.1-1)
REM options -cpp -mtune=generic -march=x86-64 -g -O0 -fpre-include=/usr/include/finclude/math-vector-fortran.h
REM seed 1803512499 454884828 1680582745 -622714467 501902231 -1486689464 1810589283 665718051 1036451009 -1666697164 -1691637632 -1115168407 -1018138789 -1144745320 -376723352 -572772769 -2024817489 1921916947 -994916412 831909933 -160839087 -671723294 -612749340 222097975 -1098283943 -823408483 1359252343 63940847 -844940779 2137118004 972631185 2143464109 2107493274
REM
CELL 1.54180  100.00000  100.00000  100.00000   90.00000   90.00000   90.00000
LATT -1
SFAC C  
C      1  0.5154460000000  0.5484520000000  0.5265850000000 1.0
C      1  0.5288030000000  0.5197390000000  0.5486910000000 1.0
C      1  0.5503940000000  0.5255490000000  0.5164570000000 1.0
C      1  0.4843180000000  0.4520800000000  0.5256960000000 1.0
C      1  0.4840180000000  0.5499840000000  0.4760180000000 1.0
C      1  0.5154250000000  0.4499090000000  0.4748570000000 1.0
C      1  0.4706830000000  0.4793840000000  0.5482180000000 1.0
C      1  0.4730980000000  0.5182340000000  0.4526210000000 1.0
C      1  0.5244670000000  0.4845140000000  0.4507250000000 1.0
C      1  0.4499940000000  0.4756460000000  0.5142740000000 1.0
C      1  0.4502520000000  0.5256970000000  0.4855150000000 1.0
C      1  0.5493950000000  0.4747010000000  0.4843920000000 1.0
C      1  0.5481270000000  0.5190110000000  0.5293000000000 1.0
C      1  0.5149430000000  0.5226340000000  0.5508720000000 1.0
C      1  0.5286500000000  0.5476410000000  0.5214200000000 1.0
C      1  0.4517760000000  0.4801870000000  0.5277450000000 1.0
C      1  0.5481790000000  0.4798450000000  0.4710340000000 1.0
C      1  0.4518820000000  0.5200710000000  0.4723670000000 1.0
C      1  0.4848930000000  0.4761470000000  0.5496960000000 1.0
C      1  0.5196290000000  0.4709580000000  0.4520710000000 1.0
C      1  0.4811890000000  0.5305160000000  0.4531900000000 1.0
C      1  0.4710480000000  0.4528650000000  0.5206540000000 1.0
C      1  0.5292700000000  0.4518950000000  0.4789580000000 1.0
C      1  0.4702790000000  0.5477360000000  0.4799070000000 1.0
C      1  0.5395660000000  0.5302970000000  0.5514240000000 1.0
C      1  0.5509790000000  0.5414030000000  0.5319360000000 1.0
C      1  0.5344810000000  0.5538610000000  0.5449000000000 1.0
C      1  0.4604020000000  0.4688100000000  0.5490840000000 1.0
C      1  0.4603700000000  0.5283460000000  0.4494810000000 1.0
C      1  0.5433600000000  0.4674930000000  0.4479360000000 1.0
C      1  0.4472410000000  0.4568500000000  0.5325040000000 1.0
C      1  0.4472350000000  0.5422780000000  0.4665380000000 1.0
C      1  0.5531010000000  0.4566200000000  0.4669990000000 1.0
C      1  0.4646440000000  0.4451850000000  0.5444470000000 1.0
C      1  0.4663420000000  0.5526920000000  0.4560470000000 1.0
C      1  0.5332660000000  0.4470450000000  0.4562490000000 1.0
C      1  0.5338220000000  0.5436980000000  0.5544680000000 1.0
C      1  0.5402450000000  0.5508820000000  0.5314960000000 1.0
C      1  0.5500030000000  0.5297420000000  0.5401240000000 1.0
C      1  0.4649480000000  0.4557910000000  0.5537720000000 1.0
C      1  0.5309920000000  0.4597190000000  0.4487520000000 1.0
C      1  0.4696940000000  0.5404210000000  0.4489430000000 1.0
C      1  0.4590420000000  0.4481790000000  0.5310390000000 1.0
C      1  0.5409670000000  0.4482030000000  0.4685640000000 1.0
C      1  0.4589540000000  0.5509900000000  0.4685710000000 1.0
C      1  0.4497780000000  0.4696530000000  0.5387360000000 1.0
C      1  0.5512860000000  0.4692450000000  0.4600690000000 1.0
C      1  0.4496330000000  0.5290720000000  0.4603360000000 1.0
C      1  0.5441140000000  0.5637050000000  0.4755910000000 1.0
C      1  0.4765280000000  0.5482680000000  0.5581850000000 1.0
C      1  0.5621740000000  0.4755870000000  0.5468250000000 1.0
C      1  0.4591040000000  0.4349670000000  0.4696520000000 1.0
C      1  0.4548020000000  0.5661820000000  0.5223930000000 1.0
C      1  0.5458630000000  0.4358880000000  0.5231370000000 1.0
C      1  0.5237650000000  0.4530740000000  0.5618310000000 1.0
C      1  0.5227450000000  0.5465720000000  0.4356190000000 1.0
C      1  0.4704490000000  0.4585070000000  0.4351540000000 1.0
C      1  0.4335010000000  0.5310040000000  0.5417500000000 1.0
C      1  0.4360640000000  0.4694360000000  0.4585590000000 1.0
C      1  0.5612770000000  0.5265320000000  0.4520740000000 1.0
C      1  0.5617630000000  0.5492420000000  0.4764140000000 1.0
C      1  0.5462740000000  0.4757320000000  0.5628290000000 1.0
C      1  0.4732920000000  0.5659720000000  0.5434260000000 1.0
C      1  0.4404380000000  0.4481160000000  0.4808180000000 1.0
C      1  0.5615850000000  0.4524340000000  0.5246150000000 1.0
C      1  0.4364500000000  0.5538860000000  0.5178020000000 1.0
C      1  0.4512940000000  0.5231540000000  0.5584850000000 1.0
C      1  0.5454100000000  0.5243960000000  0.4358780000000 1.0
C      1  0.4484210000000  0.4806620000000  0.4393100000000 1.0
C      1  0.5223860000000  0.4361580000000  0.5463750000000 1.0
C      1  0.4816810000000  0.4400530000000  0.4483080000000 1.0
C      1  0.5234500000000  0.5623690000000  0.4528970000000 1.0
C      1  0.4369580000000  0.5230580000000  0.4561370000000 1.0
C      1  0.4561510000000  0.4355260000000  0.5240470000000 1.0
C      1  0.5248970000000  0.4564840000000  0.4357400000000 1.0
C      1  0.5634150000000  0.4774750000000  0.4586420000000 1.0
C      1  0.5632470000000  0.5240380000000  0.5432040000000 1.0
C      1  0.4376790000000  0.4769920000000  0.5426220000000 1.0
C      1  0.5437750000000  0.5626540000000  0.5234210000000 1.0
C      1  0.5439930000000  0.4351250000000  0.4749170000000 1.0
C      1  0.4555150000000  0.5638540000000  0.4749170000000 1.0
C      1  0.4752040000000  0.5432370000000  0.4357980000000 1.0
C      1  0.4744720000000  0.4563910000000  0.5643370000000 1.0
C      1  0.5238870000000  0.5430060000000  0.5645780000000 1.0
C      1  0.5246370000000  0.4361260000000  0.4560070000000 1.0
C      1  0.4364310000000  0.4565510000000  0.5239190000000 1.0
C      1  0.4571070000000  0.5229920000000  0.4365460000000 1.0
C      1  0.4748690000000  0.5636580000000  0.4555050000000 1.0
C      1  0.5248280000000  0.5638850000000  0.5444800000000 1.0
C      1  0.4740050000000  0.4347880000000  0.5443490000000 1.0
C      1  0.5587100000000  0.5378680000000  0.5202080000000 1.0
C      1  0.4360340000000  0.5429440000000  0.4748460000000 1.0
C      1  0.5638420000000  0.4562290000000  0.4756790000000 1.0
C      1  0.5442210000000  0.4765160000000  0.4377070000000 1.0
C      1  0.4613670000000  0.4802270000000  0.5595810000000 1.0
C      1  0.5433160000000  0.5242050000000  0.5645060000000 1.0
C      1  0.5133500000000  0.5365330000000  0.4752390000000 1.0
C      1  0.4747570000000  0.5138630000000  0.5357940000000 1.0
C      1  0.5361590000000  0.4745980000000  0.5129750000000 1.0
C      1  0.4862210000000  0.4645460000000  0.4750240000000 1.0
C      1  0.4866870000000  0.5363880000000  0.5260410000000 1.0
C      1  0.5136170000000  0.4642750000000  0.5249170000000 1.0
C      1  0.5252950000000  0.4861750000000  0.5357040000000 1.0
C      1  0.5258890000000  0.5135180000000  0.4641060000000 1.0
C      1  0.4745170000000  0.4873920000000  0.4643200000000 1.0
C      1  0.4642740000000  0.5258830000000  0.5146050000000 1.0
C      1  0.4642870000000  0.4755310000000  0.4862030000000 1.0
C      1  0.5359620000000  0.5248570000000  0.4866370000000 1.0
C      1  0.5370970000000  0.5132790000000  0.4745490000000 1.0
C      1  0.5133620000000  0.4751530000000  0.5354760000000 1.0
C      1  0.4750530000000  0.5368020000000  0.5141440000000 1.0
C      1  0.4636530000000  0.4877170000000  0.4754050000000 1.0
C      1  0.5361130000000  0.4862330000000  0.5249410000000 1.0
C      1  0.4636580000000  0.5133460000000  0.5251350000000 1.0
C      1  0.4865510000000  0.5248600000000  0.5363160000000 1.0
C      1  0.5135000000000  0.5258560000000  0.4641220000000 1.0
C      1  0.4860650000000  0.4753980000000  0.4636790000000 1.0
C      1  0.5253610000000  0.4638950000000  0.5130600000000 1.0
C      1  0.4748030000000  0.4639100000000  0.4864750000000 1.0
C      1  0.5251920000000  0.5362120000000  0.4870610000000 1.0
C      1  0.5575590000000  0.5075700000000  0.4838940000000 1.0
C      1  0.4832300000000  0.5574010000000  0.5091320000000 1.0
C      1  0.5064910000000  0.4819220000000  0.5563110000000 1.0
C      1  0.4434010000000  0.4926000000000  0.4846140000000 1.0
C      1  0.4435830000000  0.5094110000000  0.5156790000000 1.0
C      1  0.5566660000000  0.4903940000000  0.5176940000000 1.0
C      1  0.5180720000000  0.4434160000000  0.5097130000000 1.0
C      1  0.5160700000000  0.5564750000000  0.4918690000000 1.0
C      1  0.4843730000000  0.4436100000000  0.4918250000000 1.0
C      1  0.4937570000000  0.5148290000000  0.5573380000000 1.0
C      1  0.4909190000000  0.4851660000000  0.4433300000000 1.0
C      1  0.5082450000000  0.5181680000000  0.4436650000000 1.0
C      1  0.5055700000000  0.5574350000000  0.4828880000000 1.0
C      1  0.5569220000000  0.4810620000000  0.5073030000000 1.0
C      1  0.4809850000000  0.5088650000000  0.5572640000000 1.0
C      1  0.4936250000000  0.4430690000000  0.4811640000000 1.0
C      1  0.5083050000000  0.4439670000000  0.5194840000000 1.0
C      1  0.4920200000000  0.5564290000000  0.5196990000000 1.0
C      1  0.4430340000000  0.5213770000000  0.5080830000000 1.0
C      1  0.5571110000000  0.5190720000000  0.4921550000000 1.0
C      1  0.4425990000000  0.4809140000000  0.4925380000000 1.0
C      1  0.5183630000000  0.4889480000000  0.5565880000000 1.0
C      1  0.4796930000000  0.4941120000000  0.4433020000000 1.0
C      1  0.5184360000000  0.5088060000000  0.4437430000000 1.0
C      1  0.5000690000000  0.4654600000000  0.5179260000000 1.0
C      1  0.5182060000000  0.5001390000000  0.4649880000000 1.0
C      1  0.4673490000000  0.5188590000000  0.5015550000000 1.0
C      1  0.5003920000000  0.5349800000000  0.5188530000000 1.0
C      1  0.4993490000000  0.4670790000000  0.4819180000000 1.0
C      1  0.5008570000000  0.5334200000000  0.4827040000000 1.0
C      1  0.4815580000000  0.5012700000000  0.4653270000000 1.0
C      1  0.4816970000000  0.4999010000000  0.5357410000000 1.0
C      1  0.5183200000000  0.4999300000000  0.5358310000000 1.0
C      1  0.5349150000000  0.4820490000000  0.4996280000000 1.0
C      1  0.5356180000000  0.5178700000000  0.5005120000000 1.0
C      1  0.4673600000000  0.4824030000000  0.4990900000000 1.0
C      1  0.4646520000000  0.4997980000000  0.5168390000000 1.0
C      1  0.4994990000000  0.5187570000000  0.4648150000000 1.0
C      1  0.5183060000000  0.4638780000000  0.4990270000000 1.0
C      1  0.5358510000000  0.5002410000000  0.5182070000000 1.0
C      1  0.4648400000000  0.5012360000000  0.4837390000000 1.0
C      1  0.5357400000000  0.4995100000000  0.4817720000000 1.0
C      1  0.5002900000000  0.4823430000000  0.4645750000000 1.0
C      1  0.5006630000000  0.4827300000000  0.5325590000000 1.0
C      1  0.4993100000000  0.5174270000000  0.5334240000000 1.0
C      1  0.4822360000000  0.5361260000000  0.4999970000000 1.0
C      1  0.5185560000000  0.5354880000000  0.5012360000000 1.0
C      1  0.4820440000000  0.4649290000000  0.5006340000000 1.0
C      1  0.5252560000000  0.5365160000000  0.4246650000000 1.0
C      1  0.4240450000000  0.5285860000000  0.5309410000000 1.0
C      1  0.5356650000000  0.4253450000000  0.5258800000000 1.0
C      1  0.4725710000000  0.4685910000000  0.4251760000000 1.0
C      1  0.4782730000000  0.5311010000000  0.5744420000000 1.0
C      1  0.5260110000000  0.4628890000000  0.5730700000000 1.0
C      1  0.5729780000000  0.4725580000000  0.5372280000000 1.0
C      1  0.5756930000000  0.5214060000000  0.4694310000000 1.0
C      1  0.4256640000000  0.4710320000000  0.4683190000000 1.0
C      1  0.4646010000000  0.5769840000000  0.5240920000000 1.0
C      1  0.4693230000000  0.4251030000000  0.4717730000000 1.0
C      1  0.5338310000000  0.5740050000000  0.4733320000000 1.0
C      1  0.5357260000000  0.5263990000000  0.4247240000000 1.0
C      1  0.5250320000000  0.4254680000000  0.5362080000000 1.0
C      1  0.4210600000000  0.5368160000000  0.5189100000000 1.0
C      1  0.4638940000000  0.4800340000000  0.4219370000000 1.0
C      1  0.5364010000000  0.4731690000000  0.5735070000000 1.0
C      1  0.4671920000000  0.5210120000000  0.5759050000000 1.0
C      1  0.4745680000000  0.5766590000000  0.5344950000000 1.0
C      1  0.5233110000000  0.5736100000000  0.4633010000000 1.0
C      1  0.4809910000000  0.4222440000000  0.4632510000000 1.0
C      1  0.5727730000000  0.4622300000000  0.5269400000000 1.0
C      1  0.4226040000000  0.4625250000000  0.4799970000000 1.0
C      1  0.5774090000000  0.5322250000000  0.4795090000000 1.0
C      1  0.5333810000000  0.4250620000000  0.4927230000000 1.0
C      1  0.4920670000000  0.5330180000000  0.4238820000000 1.0
C      1  0.4247360000000  0.4929780000000  0.5323160000000 1.0
C      1  0.4666140000000  0.5755710000000  0.4912190000000 1.0
C      1  0.4680460000000  0.4247840000000  0.5073910000000 1.0
C      1  0.5327100000000  0.5748640000000  0.5070500000000 1.0
C      1  0.5083360000000  0.4681430000000  0.4251270000000 1.0
C      1  0.5078820000000  0.5317150000000  0.5767660000000 1.0
C      1  0.4929490000000  0.4657880000000  0.5750350000000 1.0
C      1  0.5740980000000  0.5057720000000  0.5340410000000 1.0
C      1  0.5766110000000  0.4922440000000  0.4691110000000 1.0
C      1  0.4243160000000  0.5068620000000  0.4666970000000 1.0
C      1  0.4213620000000  0.5332880000000  0.4900640000000 1.0
C      1  0.5338360000000  0.4928550000000  0.4249900000000 1.0
C      1  0.4924010000000  0.4256050000000  0.5332160000000 1.0
C      1  0.5746760000000  0.4654700000000  0.4938130000000 1.0
C      1  0.4219520000000  0.4658760000000  0.5086840000000 1.0
C      1  0.5774690000000  0.5316070000000  0.5082120000000 1.0
C      1  0.4664740000000  0.5083860000000  0.4214370000000 1.0
C      1  0.5333800000000  0.5062760000000  0.5747030000000 1.0
C      1  0.4674760000000  0.4925550000000  0.5773060000000 1.0
C      1  0.5082040000000  0.5751050000000  0.5326020000000 1.0
C      1  0.4913180000000  0.5762380000000  0.4659350000000 1.0
C      1  0.5093940000000  0.4217700000000  0.4660070000000 1.0
C      1  0.5351960000000  0.5134500000000  0.5255180000000 1.0
C      1  0.5257570000000  0.5350430000000  0.5146820000000 1.0
C      1  0.5122330000000  0.5234310000000  0.5363710000000 1.0
C      1  0.4644990000000  0.4868460000000  0.5244860000000 1.0
C      1  0.4646600000000  0.5141810000000  0.4764100000000 1.0
C      1  0.5353170000000  0.4862140000000  0.4743980000000 1.0
C      1  0.4739560000000  0.4654650000000  0.5136440000000 1.0
C      1  0.4741610000000  0.5355910000000  0.4871490000000 1.0
C      1  0.5256720000000  0.4642380000000  0.4858530000000 1.0
C      1  0.4874500000000  0.4768350000000  0.5351910000000 1.0
C      1  0.4865570000000  0.5264550000000  0.4660920000000 1.0
C      1  0.5132040000000  0.4740700000000  0.4648900000000 1.0
C      1  0.5133270000000  0.5339310000000  0.5264430000000 1.0
C      1  0.5353220000000  0.5245630000000  0.5141550000000 1.0
C      1  0.5253780000000  0.5131790000000  0.5359750000000 1.0
C      1  0.4867030000000  0.4666060000000  0.5251980000000 1.0
C      1  0.5121870000000  0.4643600000000  0.4755890000000 1.0
C      1  0.4875900000000  0.5356990000000  0.4769080000000 1.0
C      1  0.4646090000000  0.4763180000000  0.5119970000000 1.0
C      1  0.5346370000000  0.4752650000000  0.4862380000000 1.0
C      1  0.4647930000000  0.5248040000000  0.4885350000000 1.0
C      1  0.4742650000000  0.4868470000000  0.5353300000000 1.0
C      1  0.5244780000000  0.4864250000000  0.4653810000000 1.0
C      1  0.4752530000000  0.5147310000000  0.4669260000000 1.0
C      1  0.4898980000000  0.5223100000000  0.5002300000000 1.0
C      1  0.5006040000000  0.4895120000000  0.5202530000000 1.0
C      1  0.5220200000000  0.5001250000000  0.4889170000000 1.0
C      1  0.5113710000000  0.4781240000000  0.4993720000000 1.0
C      1  0.5116550000000  0.5216810000000  0.5006230000000 1.0
C      1  0.4896160000000  0.4786390000000  0.4999690000000 1.0
C      1  0.4999300000000  0.5108740000000  0.5208890000000 1.0
C      1  0.5000810000000  0.4897380000000  0.4780790000000 1.0
C      1  0.5002720000000  0.5110430000000  0.4782850000000 1.0
C      1  0.4789690000000  0.5009150000000  0.4894190000000 1.0
C      1  0.4787050000000  0.5000680000000  0.5109520000000 1.0
C      1  0.5223000000000  0.5000740000000  0.5109580000000 1.0
C      1  0.5219540000000  0.4891470000000  0.4997920000000 1.0
C      1  0.4891140000000  0.4998800000000  0.5214380000000 1.0
C      1  0.5008520000000  0.5211080000000  0.4895690000000 1.0
C      1  0.4796300000000  0.5115490000000  0.5007000000000 1.0
C      1  0.5223870000000  0.5108570000000  0.5001650000000 1.0
C      1  0.4796200000000  0.4895800000000  0.4997530000000 1.0
C      1  0.5113730000000  0.5003360000000  0.5213860000000 1.0
C      1  0.4892100000000  0.5005650000000  0.4782270000000 1.0
C      1  0.5111270000000  0.5003280000000  0.4780990000000 1.0
C      1  0.5000650000000  0.4793250000000  0.4889050000000 1.0
C      1  0.5006630000000  0.4782940000000  0.5101590000000 1.0
C      1  0.5003770000000  0.5220980000000  0.5110020000000 1.0
C      1  0.5522680000000  0.5113940000000  0.4708900000000 1.0
C      1  0.4703950000000  0.5512640000000  0.5112130000000 1.0
C      1  0.5092150000000  0.4698310000000  0.5488870000000 1.0
C      1  0.4493050000000  0.4901730000000  0.4716060000000 1.0
C      1  0.4492740000000  0.5111450000000  0.5288730000000 1.0
C      1  0.5497210000000  0.4850220000000  0.5308430000000 1.0
C      1  0.5313150000000  0.4501460000000  0.5139430000000 1.0
C      1  0.5298200000000  0.5503960000000  0.4856360000000 1.0
C      1  0.4711970000000  0.4493180000000  0.4882540000000 1.0
C      1  0.4902570000000  0.5277970000000  0.5513530000000 1.0
C      1  0.4877880000000  0.4717940000000  0.4489640000000 1.0
C      1  0.5131600000000  0.5320080000000  0.4498190000000 1.0
C      1  0.5094110000000  0.5509500000000  0.4707230000000 1.0
C      1  0.5497680000000  0.4690070000000  0.5107940000000 1.0
C      1  0.4706970000000  0.5163640000000  0.5494700000000 1.0
C      1  0.4881630000000  0.4508790000000  0.4698960000000 1.0
C      1  0.5134430000000  0.4506580000000  0.5317430000000 1.0
C      1  0.4857340000000  0.5503580000000  0.5318910000000 1.0
C      1  0.4509760000000  0.5321380000000  0.5137890000000 1.0
C      1  0.5491620000000  0.5302720000000  0.4852890000000 1.0
C      1  0.4507180000000  0.4701400000000  0.4873070000000 1.0
C      1  0.5309400000000  0.4845390000000  0.5494700000000 1.0
C      1  0.4689240000000  0.4877780000000  0.4507910000000 1.0
C      1  0.5317600000000  0.5141930000000  0.4501160000000 1.0
C      1  0.4470930000000  0.5436390000000  0.5234220000000 1.0
C      1  0.5275800000000  0.4489860000000  0.5384480000000 1.0
C      1  0.5380290000000  0.5289710000000  0.4495190000000 1.0
C      1  0.5496940000000  0.4568030000000  0.5336380000000 1.0
C      1  0.5495970000000  0.5399290000000  0.4727610000000 1.0
C      1  0.4477660000000  0.4599280000000  0.4773960000000 1.0
C      1  0.4706830000000  0.5524000000000  0.5365040000000 1.0
C      1  0.4780850000000  0.4471140000000  0.4601270000000 1.0
C      1  0.5324080000000  0.5503990000000  0.4574000000000 1.0
C      1  0.4597440000000  0.4770330000000  0.4470160000000 1.0
C      1  0.4633180000000  0.5286260000000  0.5525360000000 1.0
C      1  0.5385310000000  0.4711020000000  0.5494380000000 1.0
C      1  0.5380250000000  0.4488840000000  0.5280710000000 1.0
C      1  0.4420130000000  0.5411020000000  0.5378100000000 1.0
C      1  0.5274080000000  0.5388060000000  0.4492820000000 1.0
C      1  0.4572530000000  0.5535370000000  0.5303270000000 1.0
C      1  0.5377240000000  0.5496940000000  0.4715930000000 1.0
C      1  0.4640370000000  0.4451140000000  0.4613030000000 1.0
C      1  0.5491700000000  0.4710910000000  0.5387920000000 1.0
C      1  0.4462740000000  0.4611460000000  0.4633700000000 1.0
C      1  0.5498730000000  0.5349970000000  0.4575600000000 1.0
C      1  0.4617550000000  0.4630070000000  0.4451920000000 1.0
C      1  0.5330960000000  0.4569640000000  0.5500490000000 1.0
C      1  0.4656640000000  0.5432370000000  0.5491770000000 1.0
C      1  0.5324600000000  0.5210350000000  0.5733600000000 1.0
C      1  0.5716390000000  0.5296000000000  0.5210690000000 1.0
C      1  0.5223920000000  0.5722680000000  0.5321310000000 1.0
C      1  0.4691490000000  0.4793230000000  0.5720780000000 1.0
C      1  0.4676380000000  0.5218600000000  0.4265150000000 1.0
C      1  0.5330730000000  0.4786230000000  0.4279640000000 1.0
C      1  0.4269180000000  0.4677070000000  0.5223490000000 1.0
C      1  0.4265260000000  0.5317710000000  0.4765480000000 1.0
C      1  0.5724690000000  0.4674390000000  0.4792740000000 1.0
C      1  0.4777690000000  0.4270080000000  0.5323610000000 1.0
C      1  0.4768250000000  0.5733520000000  0.4664570000000 1.0
C      1  0.5230350000000  0.4263640000000  0.4672200000000 1.0
C      1  0.5222120000000  0.5315330000000  0.5736990000000 1.0
C      1  0.5325040000000  0.5721100000000  0.5213480000000 1.0
C      1  0.5718920000000  0.5202480000000  0.5321310000000 1.0
C      1  0.4782610000000  0.4677700000000  0.5727230000000 1.0
C      1  0.5227430000000  0.4682670000000  0.4273000000000 1.0
C      1  0.4778370000000  0.5319930000000  0.4268880000000 1.0
C      1  0.4678750000000  0.4267950000000  0.5217450000000 1.0
C      1  0.5327290000000  0.4267470000000  0.4779650000000 1.0
C      1  0.4666110000000  0.5731740000000  0.4768610000000 1.0
C      1  0.4276260000000  0.4786490000000  0.5320320000000 1.0
C      1  0.5728450000000  0.4783230000000  0.4694880000000 1.0
C      1  0.4271920000000  0.5211030000000  0.4669390000000 1.0
C      1  0.4152580000000  0.5235600000000  0.4988910000000 1.0
C      1  0.5018990000000  0.4185610000000  0.5246460000000 1.0
C      1  0.5252650000000  0.5023080000000  0.4178310000000 1.0
C      1  0.5819900000000  0.4730410000000  0.5038770000000 1.0
C      1  0.5849110000000  0.5215540000000  0.5008930000000 1.0
C      1  0.4151980000000  0.4752220000000  0.4998980000000 1.0
C      1  0.4988480000000  0.5819300000000  0.5234680000000 1.0
C      1  0.5009980000000  0.4152230000000  0.4760160000000 1.0
C      1  0.5007790000000  0.5831850000000  0.4745620000000 1.0
C      1  0.4767550000000  0.5000980000000  0.4154410000000 1.0
C      1  0.4775230000000  0.4999640000000  0.5845700000000 1.0
C      1  0.5255220000000  0.4963300000000  0.5817410000000 1.0
C      1  0.5251610000000  0.4180120000000  0.5023850000000 1.0
C      1  0.4180260000000  0.5024670000000  0.5234820000000 1.0
C      1  0.5020650000000  0.5249120000000  0.4172470000000 1.0
C      1  0.4756410000000  0.5825330000000  0.5003560000000 1.0
C      1  0.5240610000000  0.5817480000000  0.4972480000000 1.0
C      1  0.4769560000000  0.4182970000000  0.4976750000000 1.0
C      1  0.5814250000000  0.4956550000000  0.5266500000000 1.0
C      1  0.4178580000000  0.4967840000000  0.4753050000000 1.0
C      1  0.5840610000000  0.4994590000000  0.4788560000000 1.0
C      1  0.4985820000000  0.4767050000000  0.4184420000000 1.0
C      1  0.5029270000000  0.4735680000000  0.5822450000000 1.0
C      1  0.5000180000000  0.5221360000000  0.5841990000000 1.0
C      1  0.5018070000000  0.4892650000000  0.4515270000000 1.0
C      1  0.4508650000000  0.5029090000000  0.4926720000000 1.0
C      1  0.4886500000000  0.4518200000000  0.5024870000000 1.0
C      1  0.4968460000000  0.5136230000000  0.4510870000000 1.0
C      1  0.4927240000000  0.4866110000000  0.5555550000000 1.0
C      1  0.5076220000000  0.5115140000000  0.5562450000000 1.0
C      1  0.5487750000000  0.4976310000000  0.4884640000000 1.0
C      1  0.5495840000000  0.5020110000000  0.5128810000000 1.0
C      1  0.4508320000000  0.4987700000000  0.5078670000000 1.0
C      1  0.5123540000000  0.5486870000000  0.5029280000000 1.0
C      1  0.5131050000000  0.4495180000000  0.4978510000000 1.0
C      1  0.4879290000000  0.5500860000000  0.4982520000000 1.0
C      1  0.4834830000000  0.5069080000000  0.4496790000000 1.0
C      1  0.5075440000000  0.4439560000000  0.4851640000000 1.0
C      1  0.4440330000000  0.4852030000000  0.5061820000000 1.0
C      1  0.5147060000000  0.4959520000000  0.4498320000000 1.0
C      1  0.4870370000000  0.4988340000000  0.5498350000000 1.0
C      1  0.5131690000000  0.4999320000000  0.5499440000000 1.0
C      1  0.4918250000000  0.5562260000000  0.4861620000000 1.0
C      1  0.5049250000000  0.5499930000000  0.5158400000000 1.0
C      1  0.4953560000000  0.4501960000000  0.5153810000000 1.0
C      1  0.5511890000000  0.5151160000000  0.5052320000000 1.0
C      1  0.4444430000000  0.5167830000000  0.4944200000000 1.0
C      1  0.5504890000000  0.4850860000000  0.4949220000000 1.0
C      1  0.4965990000000  0.4345290000000  0.5440390000000 1.0
C      1  0.5440520000000  0.4983320000000  0.4339330000000 1.0
C      1  0.4271010000000  0.5451210000000  0.4960280000000 1.0
C      1  0.5029430000000  0.5665330000000  0.5435150000000 1.0
C      1  0.5030740000000  0.4285040000000  0.4546030000000 1.0
C      1  0.4973490000000  0.5672050000000  0.4563380000000 1.0
C      1  0.4549980000000  0.5019510000000  0.4278750000000 1.0
C      1  0.4567440000000  0.4998420000000  0.5699110000000 1.0
C      1  0.5436960000000  0.5020010000000  0.5653930000000 1.0
C      1  0.5656120000000  0.4549150000000  0.4981370000000 1.0
C      1  0.5704980000000  0.5424320000000  0.5008730000000 1.0
C      1  0.4288460000000  0.4544930000000  0.5024420000000 1.0
C      1  0.4335350000000  0.4984980000000  0.5426200000000 1.0
C      1  0.4970810000000  0.5436130000000  0.4324010000000 1.0
C      1  0.5439610000000  0.4341090000000  0.4971200000000 1.0
C      1  0.5649800000000  0.5018550000000  0.5445340000000 1.0
C      1  0.4334740000000  0.5019730000000  0.4565500000000 1.0
C      1  0.5691380000000  0.4995150000000  0.4587490000000 1.0
C      1  0.5032860000000  0.4577280000000  0.4340320000000 1.0
C      1  0.4972550000000  0.4555830000000  0.5655920000000 1.0
C      1  0.5010370000000  0.5415170000000  0.5683700000000 1.0
C      1  0.4564910000000  0.5664390000000  0.4967700000000 1.0
C      1  0.5429990000000  0.5660260000000  0.5016270000000 1.0
C      1  0.4575960000000  0.4336900000000  0.5024980000000 1.0
C      1  0.4143520000000  0.4987290000000  0.4889760000000 1.0
C      1  0.4907240000000  0.4152790000000  0.5000380000000 1.0
C      1  0.5008600000000  0.4904520000000  0.4152700000000 1.0
C      1  0.5859380000000  0.4971210000000  0.4926320000000 1.0
C      1  0.5852240000000  0.4970830000000  0.5131610000000 1.0
C      1  0.4148040000000  0.5001090000000  0.5097720000000 1.0
C      1  0.5102930000000  0.5849070000000  0.4989200000000 1.0
C      1  0.5113920000000  0.4150840000000  0.5007920000000 1.0
C      1  0.4896150000000  0.5851340000000  0.4990360000000 1.0
C      1  0.5011790000000  0.5111170000000  0.4145630000000 1.0
C      1  0.5016700000000  0.4873560000000  0.5857780000000 1.0
C      1  0.5018250000000  0.5081440000000  0.5865120000000 1.0
C      1  0.5016550000000  0.4142990000000  0.4901410000000 1.0
C      1  0.4140140000000  0.4892060000000  0.5002860000000 1.0
C      1  0.4907530000000  0.5011170000000  0.4144640000000 1.0
C      1  0.4997830000000  0.5857940000000  0.4886570000000 1.0
C      1  0.5001340000000  0.5844540000000  0.5093920000000 1.0
C      1  0.5005670000000  0.4157240000000  0.5107640000000 1.0
C      1  0.5860140000000  0.5075120000000  0.5030660000000 1.0
C      1  0.4143550000000  0.5096230000000  0.4985310000000 1.0
C      1  0.5853480000000  0.4867700000000  0.5027270000000 1.0
C      1  0.5114490000000  0.5005730000000  0.4149830000000 1.0
C      1  0.4914380000000  0.4977010000000  0.5864570000000 1.0
C      1  0.5120410000000  0.4977770000000  0.5856210000000 1.0
C      1  0.5147760000000  0.5815480000000  0.4725220000000 1.0
C      1  0.4757730000000  0.5138720000000  0.5848920000000 1.0
C      1  0.5805680000000  0.4709350000000  0.5181010000000 1.0
C      1  0.4870590000000  0.4153010000000  0.4741190000000 1.0
C      1  0.4844680000000  0.5824280000000  0.5250780000000 1.0
C      1  0.5161980000000  0.4182820000000  0.5269730000000 1.0
C      1  0.5275690000000  0.4819620000000  0.5810730000000 1.0
C      1  0.5267910000000  0.5167730000000  0.4181610000000 1.0
C      1  0.4748470000000  0.4861950000000  0.4152460000000 1.0
C      1  0.4148170000000  0.5256260000000  0.5128230000000 1.0
C      1  0.4154010000000  0.4732610000000  0.4859050000000 1.0
C      1  0.5858570000000  0.5234390000000  0.4869950000000 1.0
C      1  0.5848360000000  0.5133640000000  0.4768030000000 1.0
C      1  0.5171440000000  0.4716070000000  0.5808610000000 1.0
C      1  0.4740560000000  0.5827270000000  0.5146670000000 1.0
C      1  0.4184550000000  0.4822690000000  0.4746610000000 1.0
C      1  0.5806730000000  0.4813180000000  0.5285270000000 1.0
C      1  0.4177880000000  0.5169850000000  0.5242790000000 1.0
C      1  0.4860280000000  0.5239330000000  0.5840240000000 1.0
C      1  0.5162190000000  0.5269930000000  0.4180850000000 1.0
C      1  0.4839650000000  0.4752470000000  0.4184230000000 1.0
C      1  0.5268490000000  0.4180610000000  0.5167870000000 1.0
C      1  0.4758670000000  0.4182400000000  0.4831150000000 1.0
C      1  0.5253250000000  0.5811990000000  0.4827610000000 1.0
C      1  0.5604190000000  0.5482870000000  0.5098750000000 1.0
C      1  0.5127270000000  0.5606990000000  0.5518830000000 1.0
C      1  0.5516940000000  0.5131250000000  0.5620320000000 1.0
C      1  0.4376950000000  0.4482620000000  0.5122270000000 1.0
C      1  0.4365600000000  0.5514720000000  0.4864600000000 1.0
C      1  0.5618100000000  0.4475370000000  0.4867560000000 1.0
C      1  0.4855460000000  0.4379930000000  0.5520020000000 1.0
C      1  0.4868600000000  0.5615620000000  0.4479740000000 1.0
C      1  0.5128280000000  0.4373990000000  0.4480580000000 1.0
C      1  0.4511400000000  0.4905720000000  0.5600690000000 1.0
C      1  0.4487890000000  0.5114570000000  0.4370920000000 1.0
C      1  0.5519750000000  0.4884200000000  0.4404520000000 1.0
C      1  0.5512890000000  0.5596120000000  0.5115160000000 1.0
C      1  0.5613750000000  0.5131980000000  0.5521270000000 1.0
C      1  0.5115070000000  0.5497270000000  0.5617500000000 1.0
C      1  0.4483900000000  0.4382500000000  0.5124320000000 1.0
C      1  0.5521460000000  0.4375020000000  0.4861860000000 1.0
C      1  0.4475210000000  0.5613090000000  0.4865190000000 1.0
C      1  0.4400020000000  0.4888040000000  0.5506740000000 1.0
C      1  0.5620020000000  0.4894570000000  0.4508860000000 1.0
C      1  0.4387590000000  0.5118450000000  0.4476290000000 1.0
C      1  0.4858350000000  0.4482930000000  0.5615860000000 1.0
C      1  0.5132000000000  0.4483800000000  0.4383130000000 1.0
C      1  0.4865130000000  0.5517150000000  0.4376690000000 1.0
C      1  0.4413010000000  0.5100750000000  0.5407980000000 1.0
C      1  0.5442680000000  0.4437250000000  0.5084520000000 1.0
C      1  0.5088130000000  0.5422760000000  0.4398500000000 1.0
C      1  0.5552070000000  0.4906660000000  0.5446920000000 1.0
C      1  0.5645930000000  0.5148210000000  0.4615080000000 1.0
C      1  0.4418750000000  0.4912180000000  0.4595600000000 1.0
C      1  0.4590670000000  0.5593370000000  0.5089180000000 1.0
C      1  0.4595660000000  0.4416140000000  0.4911550000000 1.0
C      1  0.5406440000000  0.5592080000000  0.4897970000000 1.0
C      1  0.4918490000000  0.4598910000000  0.4418830000000 1.0
C      1  0.4860020000000  0.5381770000000  0.5634890000000 1.0
C      1  0.5088550000000  0.4556340000000  0.5554740000000 1.0
C      1  0.5079490000000  0.4441500000000  0.5447680000000 1.0
C      1  0.4266040000000  0.5468060000000  0.5104610000000 1.0
C      1  0.5425490000000  0.5102740000000  0.4408740000000 1.0
C      1  0.4918480000000  0.5579510000000  0.5437750000000 1.0
C      1  0.5100240000000  0.5601940000000  0.4594660000000 1.0
C      1  0.4886940000000  0.4287120000000  0.4530870000000 1.0
C      1  0.5553940000000  0.4548900000000  0.5096490000000 1.0
C      1  0.4291230000000  0.4526540000000  0.4880170000000 1.0
C      1  0.5711260000000  0.5432630000000  0.4857770000000 1.0
C      1  0.4534650000000  0.4876260000000  0.4281240000000 1.0
C      1  0.5441520000000  0.4907370000000  0.5555590000000 1.0
C      1  0.4561140000000  0.5146770000000  0.5693940000000 1.0
C      1  0.4400860000000  0.4803960000000  0.4503020000000 1.0
C      1  0.5593320000000  0.5268900000000  0.4383210000000 1.0
C      1  0.5599570000000  0.4723380000000  0.5606150000000 1.0
C      1  0.4402960000000  0.5211570000000  0.5497430000000 1.0
C      1  0.5581510000000  0.5619580000000  0.4728890000000 1.0
C      1  0.5597900000000  0.4377250000000  0.5257020000000 1.0
C      1  0.4400650000000  0.5663490000000  0.5215510000000 1.0
C      1  0.5247260000000  0.5605170000000  0.4382650000000 1.0
C      1  0.5248310000000  0.4381990000000  0.5603180000000 1.0
C      1  0.4815310000000  0.5605410000000  0.5532750000000 1.0
C      1  0.4815140000000  0.4502920000000  0.4390740000000 1.0
C      1  0.4505280000000  0.4386960000000  0.4804410000000 1.0
C      1  0.5459510000000  0.5481260000000  0.4528970000000 1.0
C      1  0.5463170000000  0.4520550000000  0.5469100000000 1.0
C      1  0.4521190000000  0.5485940000000  0.5439300000000 1.0
C      1  0.4567840000000  0.4557170000000  0.4559500000000 1.0
END
