TITL C-3151192-8964-12 9.30269391549345 1000000 -3656.61327219975 0 0 520 (C1) n - 1
REM
REM in /scratch/bkarasulu/Only-C240/Try4-Only-SYMOP24
REM
REM
REM
REM
REM
REM ./C.cell (018bbde761a0794ceee8127bb1f748ef)
REM
REM compiler GCC version 9.2.1 20190827 (Red Hat 9.2.1-1)
REM options -cpp -mtune=generic -march=x86-64 -g -O0 -fpre-include=/usr/include/finclude/math-vector-fortran.h
REM seed 1088639888 -2121584864 1501589366 -2042576481 215879797 -1763762186 -2146097512 145906700 -1843938722 -380316399 -1471530055 -566905908 889876803 1020908091 1983791835 -146152879 -323899561 -2110394001 481434576 1936814721 -784730621 -534756477 2010074272 1411586396 -399899954 -199494763 1199923799 -1647686913 1308167448 1918099164 -449432421 1400233960 379268856
REM
CELL 1.54180  100.00000  100.00000  100.00000   90.00000   90.00000   90.00000
LATT -1
SFAC C  
C      1  0.4888730000000  0.4778490000000  0.4996300000000 1.0
C      1  0.4781020000000  0.4996150000000  0.4885570000000 1.0
C      1  0.5000890000000  0.4889670000000  0.4777010000000 1.0
C      1  0.4890360000000  0.5217790000000  0.4997340000000 1.0
C      1  0.5108940000000  0.4779600000000  0.4997940000000 1.0
C      1  0.5110820000000  0.5218930000000  0.4995940000000 1.0
C      1  0.4779700000000  0.4998770000000  0.5106630000000 1.0
C      1  0.5219120000000  0.4998660000000  0.5107720000000 1.0
C      1  0.5219770000000  0.5000150000000  0.4887610000000 1.0
C      1  0.5000030000000  0.5109060000000  0.5216760000000 1.0
C      1  0.4997940000000  0.4888650000000  0.5216980000000 1.0
C      1  0.5000430000000  0.5109480000000  0.4777620000000 1.0
C      1  0.4890760000000  0.4998170000000  0.4776480000000 1.0
C      1  0.4779930000000  0.4887860000000  0.4996990000000 1.0
C      1  0.4999130000000  0.4779470000000  0.4887150000000 1.0
C      1  0.4889390000000  0.5000000000000  0.5216740000000 1.0
C      1  0.5111280000000  0.5000680000000  0.4777680000000 1.0
C      1  0.5108630000000  0.4997850000000  0.5217230000000 1.0
C      1  0.4780530000000  0.5107310000000  0.4996190000000 1.0
C      1  0.5220090000000  0.5109250000000  0.4996850000000 1.0
C      1  0.5218750000000  0.4889340000000  0.4998050000000 1.0
C      1  0.5001420000000  0.5218320000000  0.5106330000000 1.0
C      1  0.5000600000000  0.5219130000000  0.4886870000000 1.0
C      1  0.4997760000000  0.4779140000000  0.5106590000000 1.0
C      1  0.5255910000000  0.4615830000000  0.5481480000000 1.0
C      1  0.4730560000000  0.5438380000000  0.5264320000000 1.0
C      1  0.5359120000000  0.5226460000000  0.4676540000000 1.0
C      1  0.5174040000000  0.5366530000000  0.4596790000000 1.0
C      1  0.4789970000000  0.4665290000000  0.4647350000000 1.0
C      1  0.4743260000000  0.5381340000000  0.5479500000000 1.0
C      1  0.4620630000000  0.4513480000000  0.4735180000000 1.0
C      1  0.5350620000000  0.5470240000000  0.4721540000000 1.0
C      1  0.5267700000000  0.4559760000000  0.5266360000000 1.0
C      1  0.5342740000000  0.4787300000000  0.5331260000000 1.0
C      1  0.4655760000000  0.5211030000000  0.5327750000000 1.0
C      1  0.4561430000000  0.4727540000000  0.4722410000000 1.0
C      1  0.5261330000000  0.5485450000000  0.4615180000000 1.0
C      1  0.4653770000000  0.5274660000000  0.5463440000000 1.0
C      1  0.5352940000000  0.4678380000000  0.5223230000000 1.0
C      1  0.5168180000000  0.4597960000000  0.5362990000000 1.0
C      1  0.4726950000000  0.4528900000000  0.4645370000000 1.0
C      1  0.4830180000000  0.5400530000000  0.5360860000000 1.0
C      1  0.4679450000000  0.4771780000000  0.4637180000000 1.0
C      1  0.5345610000000  0.4722230000000  0.5466800000000 1.0
C      1  0.5273620000000  0.5270400000000  0.4558290000000 1.0
C      1  0.5347910000000  0.5334580000000  0.4785520000000 1.0
C      1  0.4645630000000  0.5319870000000  0.5220740000000 1.0
C      1  0.4601620000000  0.4632270000000  0.4821650000000 1.0
C      1  0.4706160000000  0.4438500000000  0.5663890000000 1.0
C      1  0.4438990000000  0.5666800000000  0.4708830000000 1.0
C      1  0.5678380000000  0.4719030000000  0.4430670000000 1.0
C      1  0.4714930000000  0.5565870000000  0.4327210000000 1.0
C      1  0.5285860000000  0.4434020000000  0.4325950000000 1.0
C      1  0.5284540000000  0.5559560000000  0.5672410000000 1.0
C      1  0.4429180000000  0.4319770000000  0.5275280000000 1.0
C      1  0.5568680000000  0.5670460000000  0.5280730000000 1.0
C      1  0.5560620000000  0.4331280000000  0.4708790000000 1.0
C      1  0.5667530000000  0.5280620000000  0.5563130000000 1.0
C      1  0.4326450000000  0.4715670000000  0.5561540000000 1.0
C      1  0.4323050000000  0.5278250000000  0.4429320000000 1.0
C      1  0.4719770000000  0.5677150000000  0.4430340000000 1.0
C      1  0.4429110000000  0.4722070000000  0.5673070000000 1.0
C      1  0.5668270000000  0.4438180000000  0.4709770000000 1.0
C      1  0.4705920000000  0.4331070000000  0.5557480000000 1.0
C      1  0.5279920000000  0.4323090000000  0.4429280000000 1.0
C      1  0.5288990000000  0.5663460000000  0.5562220000000 1.0
C      1  0.4435280000000  0.5282420000000  0.4326440000000 1.0
C      1  0.5563190000000  0.5275160000000  0.5672650000000 1.0
C      1  0.5567080000000  0.4714660000000  0.4327040000000 1.0
C      1  0.5676500000000  0.5562140000000  0.5282840000000 1.0
C      1  0.4332260000000  0.5558950000000  0.4709080000000 1.0
C      1  0.4327380000000  0.4431620000000  0.5281240000000 1.0
C      1  0.4341760000000  0.5551810000000  0.4860300000000 1.0
C      1  0.5555800000000  0.4864590000000  0.4332610000000 1.0
C      1  0.4856870000000  0.4339440000000  0.5549690000000 1.0
C      1  0.4333800000000  0.4444380000000  0.5131740000000 1.0
C      1  0.5667330000000  0.5552080000000  0.5132030000000 1.0
C      1  0.5658510000000  0.4445370000000  0.4861000000000 1.0
C      1  0.5557630000000  0.5124050000000  0.5659500000000 1.0
C      1  0.4435680000000  0.4873620000000  0.5657380000000 1.0
C      1  0.4446450000000  0.5132170000000  0.4332900000000 1.0
C      1  0.4871610000000  0.5664210000000  0.4436000000000 1.0
C      1  0.5128580000000  0.4337560000000  0.4435010000000 1.0
C      1  0.5138830000000  0.5658940000000  0.5552420000000 1.0
C      1  0.4334520000000  0.4864860000000  0.5546780000000 1.0
C      1  0.5552400000000  0.4339260000000  0.4859610000000 1.0
C      1  0.4864900000000  0.5553990000000  0.4334580000000 1.0
C      1  0.4335520000000  0.5126090000000  0.4435430000000 1.0
C      1  0.5661170000000  0.5131070000000  0.5550210000000 1.0
C      1  0.5666220000000  0.4871230000000  0.4436140000000 1.0
C      1  0.5561230000000  0.5659020000000  0.5129770000000 1.0
C      1  0.4447460000000  0.5657930000000  0.4859710000000 1.0
C      1  0.4435170000000  0.4333520000000  0.5123170000000 1.0
C      1  0.4857010000000  0.4444660000000  0.5655250000000 1.0
C      1  0.5136360000000  0.4447670000000  0.4333710000000 1.0
C      1  0.5132850000000  0.5556710000000  0.5662390000000 1.0
C      1  0.5346330000000  0.4556200000000  0.4362610000000 1.0
C      1  0.4558320000000  0.4340200000000  0.5326970000000 1.0
C      1  0.4343390000000  0.5329710000000  0.4559030000000 1.0
C      1  0.5337330000000  0.5431200000000  0.5651160000000 1.0
C      1  0.4648410000000  0.4562940000000  0.5635650000000 1.0
C      1  0.4654690000000  0.5443010000000  0.4362660000000 1.0
C      1  0.4562960000000  0.5638340000000  0.4651020000000 1.0
C      1  0.5436960000000  0.4360160000000  0.4650240000000 1.0
C      1  0.5439880000000  0.5642580000000  0.5334860000000 1.0
C      1  0.4363640000000  0.4652780000000  0.5440670000000 1.0
C      1  0.5631480000000  0.5343150000000  0.5442250000000 1.0
C      1  0.5656540000000  0.4667080000000  0.4559760000000 1.0
C      1  0.5331240000000  0.4343000000000  0.4559360000000 1.0
C      1  0.4556650000000  0.5344130000000  0.4362580000000 1.0
C      1  0.4364160000000  0.4553440000000  0.5343140000000 1.0
C      1  0.5349780000000  0.5628130000000  0.5440430000000 1.0
C      1  0.4668450000000  0.5656020000000  0.4559990000000 1.0
C      1  0.4647990000000  0.4359640000000  0.5433420000000 1.0
C      1  0.4558500000000  0.4669560000000  0.5654180000000 1.0
C      1  0.5444460000000  0.4654860000000  0.4362870000000 1.0
C      1  0.5434710000000  0.5329300000000  0.5653490000000 1.0
C      1  0.4360760000000  0.5435680000000  0.4649960000000 1.0
C      1  0.5644170000000  0.5435260000000  0.5338480000000 1.0
C      1  0.5639630000000  0.4561540000000  0.4651020000000 1.0
C      1  0.5385540000000  0.4476210000000  0.5302770000000 1.0
C      1  0.4429110000000  0.5204190000000  0.5534300000000 1.0
C      1  0.5250560000000  0.5560460000000  0.4376970000000 1.0
C      1  0.5452740000000  0.5569850000000  0.4734030000000 1.0
C      1  0.4513120000000  0.4418980000000  0.4707330000000 1.0
C      1  0.4613490000000  0.5521690000000  0.5303030000000 1.0
C      1  0.4477710000000  0.4687780000000  0.4606090000000 1.0
C      1  0.5483700000000  0.5286320000000  0.4582700000000 1.0
C      1  0.5568450000000  0.4792470000000  0.5536610000000 1.0
C      1  0.5286050000000  0.4507880000000  0.5575860000000 1.0
C      1  0.4712840000000  0.5489200000000  0.5573450000000 1.0
C      1  0.4795550000000  0.4457230000000  0.4420710000000 1.0
C      1  0.5391800000000  0.5306130000000  0.4475500000000 1.0
C      1  0.4521400000000  0.5415400000000  0.5286960000000 1.0
C      1  0.5247980000000  0.4376180000000  0.5555160000000 1.0
C      1  0.5447130000000  0.4734020000000  0.5567220000000 1.0
C      1  0.4584010000000  0.4704860000000  0.4513720000000 1.0
C      1  0.4551420000000  0.5261970000000  0.5562210000000 1.0
C      1  0.4382190000000  0.4436110000000  0.4752440000000 1.0
C      1  0.5477190000000  0.4583280000000  0.5286450000000 1.0
C      1  0.5574570000000  0.5540030000000  0.4792090000000 1.0
C      1  0.5291130000000  0.5580970000000  0.4508450000000 1.0
C      1  0.4755090000000  0.5620470000000  0.5555060000000 1.0
C      1  0.4738510000000  0.4429180000000  0.4543330000000 1.0
C      1  0.5241840000000  0.4135890000000  0.4966320000000 1.0
C      1  0.4130470000000  0.4972880000000  0.5233440000000 1.0
C      1  0.4972230000000  0.5239510000000  0.4130850000000 1.0
C      1  0.5240990000000  0.5860380000000  0.5037150000000 1.0
C      1  0.4758520000000  0.4140430000000  0.5030580000000 1.0
C      1  0.4758460000000  0.5860820000000  0.4966130000000 1.0
C      1  0.4139750000000  0.5029340000000  0.4749840000000 1.0
C      1  0.5859290000000  0.4980810000000  0.4749990000000 1.0
C      1  0.5867920000000  0.5026740000000  0.5234980000000 1.0
C      1  0.4966740000000  0.4757180000000  0.5858950000000 1.0
C      1  0.5028760000000  0.5239960000000  0.5858570000000 1.0
C      1  0.5027840000000  0.4756970000000  0.4127390000000 1.0
C      1  0.5241830000000  0.4971180000000  0.4132040000000 1.0
C      1  0.4140650000000  0.5247530000000  0.4980780000000 1.0
C      1  0.4977210000000  0.4131100000000  0.5237330000000 1.0
C      1  0.5238080000000  0.5034410000000  0.5858340000000 1.0
C      1  0.4756350000000  0.5013160000000  0.4135560000000 1.0
C      1  0.4755650000000  0.4961480000000  0.5856420000000 1.0
C      1  0.4131150000000  0.4763530000000  0.5025080000000 1.0
C      1  0.5857710000000  0.4752430000000  0.4980830000000 1.0
C      1  0.5871840000000  0.5236640000000  0.5025770000000 1.0
C      1  0.4970710000000  0.5860750000000  0.4754290000000 1.0
C      1  0.5022410000000  0.5866550000000  0.5239110000000 1.0
C      1  0.5035050000000  0.4137190000000  0.4752870000000 1.0
C      1  0.4503850000000  0.4709580000000  0.5404130000000 1.0
C      1  0.4712060000000  0.5406930000000  0.4502650000000 1.0
C      1  0.5381560000000  0.4496550000000  0.4701710000000 1.0
C      1  0.4476930000000  0.5267770000000  0.4601770000000 1.0
C      1  0.5522540000000  0.4728570000000  0.4602180000000 1.0
C      1  0.5489010000000  0.5289360000000  0.5405840000000 1.0
C      1  0.4701160000000  0.4620680000000  0.5501530000000 1.0
C      1  0.5282440000000  0.5384200000000  0.5514990000000 1.0
C      1  0.5288500000000  0.4592260000000  0.4502540000000 1.0
C      1  0.5403530000000  0.5509010000000  0.5267710000000 1.0
C      1  0.4602140000000  0.4473320000000  0.5263560000000 1.0
C      1  0.4618760000000  0.5502080000000  0.4702170000000 1.0
C      1  0.4497840000000  0.5380130000000  0.4700470000000 1.0
C      1  0.4701100000000  0.4493170000000  0.5374810000000 1.0
C      1  0.5407370000000  0.4710740000000  0.4502680000000 1.0
C      1  0.4504040000000  0.4590220000000  0.5286370000000 1.0
C      1  0.5501940000000  0.4616220000000  0.4701330000000 1.0
C      1  0.5510770000000  0.5400290000000  0.5270190000000 1.0
C      1  0.4731180000000  0.5522520000000  0.4602750000000 1.0
C      1  0.5295560000000  0.5486440000000  0.5402950000000 1.0
C      1  0.5268260000000  0.4476390000000  0.4602310000000 1.0
C      1  0.5387780000000  0.5274600000000  0.5517380000000 1.0
C      1  0.4592810000000  0.5288870000000  0.4503200000000 1.0
C      1  0.4602280000000  0.4732820000000  0.5520960000000 1.0
C      1  0.4226510000000  0.4670810000000  0.4867000000000 1.0
C      1  0.4659280000000  0.4850490000000  0.4262840000000 1.0
C      1  0.4864970000000  0.4221890000000  0.4671120000000 1.0
C      1  0.4267410000000  0.5340270000000  0.5144020000000 1.0
C      1  0.5734090000000  0.4658270000000  0.5145310000000 1.0
C      1  0.5775930000000  0.5318420000000  0.4859980000000 1.0
C      1  0.4675790000000  0.5135550000000  0.5772750000000 1.0
C      1  0.5315920000000  0.4862730000000  0.5771910000000 1.0
C      1  0.5334010000000  0.5140710000000  0.4240780000000 1.0
C      1  0.4873740000000  0.5769170000000  0.5317280000000 1.0
C      1  0.5126770000000  0.4227590000000  0.5316790000000 1.0
C      1  0.5141580000000  0.5769770000000  0.4667390000000 1.0
C      1  0.4238730000000  0.4850790000000  0.4665710000000 1.0
C      1  0.4669030000000  0.4226600000000  0.4855240000000 1.0
C      1  0.4865870000000  0.4682780000000  0.4228750000000 1.0
C      1  0.4232600000000  0.5135630000000  0.5313070000000 1.0
C      1  0.5744390000000  0.5151580000000  0.4655150000000 1.0
C      1  0.5767150000000  0.4862920000000  0.5314140000000 1.0
C      1  0.4672290000000  0.5755200000000  0.5135940000000 1.0
C      1  0.5326830000000  0.5776090000000  0.4864860000000 1.0
C      1  0.5328620000000  0.4242160000000  0.5135280000000 1.0
C      1  0.4860470000000  0.5331290000000  0.5764390000000 1.0
C      1  0.5131250000000  0.5321470000000  0.4225550000000 1.0
C      1  0.5130980000000  0.4665190000000  0.5760180000000 1.0
C      1  0.5797570000000  0.5022050000000  0.4628810000000 1.0
C      1  0.4997090000000  0.4633700000000  0.5797630000000 1.0
C      1  0.4637260000000  0.5798140000000  0.5003490000000 1.0
C      1  0.5804110000000  0.4994480000000  0.5353990000000 1.0
C      1  0.4194090000000  0.5004310000000  0.5352420000000 1.0
C      1  0.4198300000000  0.4983260000000  0.4628980000000 1.0
C      1  0.4998970000000  0.5360540000000  0.4192490000000 1.0
C      1  0.4996690000000  0.4639720000000  0.4193130000000 1.0
C      1  0.4993760000000  0.5364470000000  0.5800780000000 1.0
C      1  0.4633300000000  0.4194240000000  0.4988920000000 1.0
C      1  0.5364740000000  0.5804280000000  0.4998840000000 1.0
C      1  0.5363120000000  0.4198570000000  0.5003020000000 1.0
C      1  0.5790810000000  0.4633040000000  0.5016360000000 1.0
C      1  0.5008490000000  0.5803200000000  0.4630490000000 1.0
C      1  0.4633070000000  0.5003140000000  0.5800170000000 1.0
C      1  0.5811420000000  0.5357630000000  0.4992440000000 1.0
C      1  0.4209490000000  0.5365710000000  0.5015680000000 1.0
C      1  0.4189930000000  0.4639790000000  0.5000360000000 1.0
C      1  0.4994450000000  0.4194770000000  0.5358620000000 1.0
C      1  0.4997480000000  0.4194660000000  0.4629720000000 1.0
C      1  0.5005450000000  0.5802040000000  0.5359690000000 1.0
C      1  0.4637000000000  0.4978720000000  0.4203080000000 1.0
C      1  0.5359860000000  0.4994450000000  0.5800850000000 1.0
C      1  0.5363450000000  0.5008110000000  0.4194680000000 1.0
C      1  0.4532050000000  0.4847440000000  0.5351270000000 1.0
C      1  0.4850550000000  0.5355540000000  0.4531650000000 1.0
C      1  0.5353880000000  0.4533170000000  0.4843980000000 1.0
C      1  0.4531310000000  0.5135790000000  0.4639600000000 1.0
C      1  0.5469160000000  0.4859920000000  0.4640930000000 1.0
C      1  0.5464280000000  0.5149760000000  0.5354950000000 1.0
C      1  0.4843700000000  0.4642500000000  0.5462410000000 1.0
C      1  0.5144830000000  0.5352890000000  0.5466290000000 1.0
C      1  0.5151080000000  0.4644890000000  0.4531330000000 1.0
C      1  0.5359360000000  0.5466370000000  0.5133750000000 1.0
C      1  0.4639500000000  0.4529090000000  0.5132370000000 1.0
C      1  0.4645390000000  0.5463790000000  0.4844230000000 1.0
C      1  0.4534800000000  0.5351450000000  0.4841570000000 1.0
C      1  0.4843850000000  0.4531620000000  0.5351420000000 1.0
C      1  0.5356640000000  0.4849020000000  0.4530760000000 1.0
C      1  0.4531810000000  0.4641940000000  0.5147570000000 1.0
C      1  0.5465000000000  0.4644990000000  0.4842660000000 1.0
C      1  0.5471400000000  0.5352810000000  0.5136740000000 1.0
C      1  0.4863080000000  0.5468230000000  0.4640540000000 1.0
C      1  0.5154350000000  0.5462460000000  0.5354410000000 1.0
C      1  0.5136270000000  0.4531850000000  0.4639430000000 1.0
C      1  0.5354530000000  0.5138060000000  0.5466430000000 1.0
C      1  0.4645270000000  0.5151550000000  0.4530520000000 1.0
C      1  0.4639620000000  0.4863920000000  0.5464550000000 1.0
C      1  0.5334680000000  0.4419950000000  0.4931010000000 1.0
C      1  0.4417300000000  0.4931770000000  0.5327610000000 1.0
C      1  0.4935610000000  0.5334790000000  0.4416750000000 1.0
C      1  0.5345570000000  0.5575750000000  0.5043090000000 1.0
C      1  0.4650930000000  0.4421280000000  0.5039370000000 1.0
C      1  0.4664500000000  0.5576500000000  0.4932330000000 1.0
C      1  0.4421070000000  0.5046600000000  0.4653350000000 1.0
C      1  0.5578990000000  0.4947420000000  0.4654720000000 1.0
C      1  0.5579120000000  0.5064710000000  0.5331560000000 1.0
C      1  0.4935580000000  0.4658500000000  0.5573070000000 1.0
C      1  0.5052900000000  0.5341690000000  0.5575310000000 1.0
C      1  0.5066670000000  0.4667180000000  0.4416420000000 1.0
C      1  0.5335990000000  0.4932000000000  0.4414900000000 1.0
C      1  0.4421920000000  0.5331540000000  0.4927040000000 1.0
C      1  0.4932790000000  0.4419160000000  0.5332190000000 1.0
C      1  0.5341010000000  0.5043930000000  0.5573190000000 1.0
C      1  0.4668590000000  0.5070440000000  0.4415010000000 1.0
C      1  0.4651470000000  0.4959140000000  0.5570750000000 1.0
C      1  0.4416540000000  0.4663070000000  0.5063680000000 1.0
C      1  0.5577630000000  0.4664910000000  0.4928730000000 1.0
C      1  0.5584140000000  0.5335290000000  0.5051280000000 1.0
C      1  0.4955590000000  0.5576780000000  0.4651490000000 1.0
C      1  0.5070080000000  0.5577840000000  0.5332360000000 1.0
C      1  0.5041960000000  0.4424530000000  0.4649920000000 1.0
C      1  0.5004660000000  0.5191550000000  0.5347170000000 1.0
C      1  0.5192840000000  0.5349490000000  0.4998970000000 1.0
C      1  0.5349600000000  0.5005040000000  0.5187680000000 1.0
C      1  0.5006970000000  0.4810750000000  0.4646390000000 1.0
C      1  0.4995030000000  0.5190290000000  0.4646270000000 1.0
C      1  0.4991900000000  0.4806710000000  0.5347400000000 1.0
C      1  0.5191140000000  0.4649360000000  0.4995770000000 1.0
C      1  0.4808080000000  0.5347730000000  0.4995150000000 1.0
C      1  0.4806640000000  0.4647580000000  0.4998630000000 1.0
C      1  0.5351330000000  0.4996110000000  0.4808600000000 1.0
C      1  0.4651580000000  0.4995310000000  0.4801830000000 1.0
C      1  0.4648680000000  0.4992310000000  0.5185690000000 1.0
C      1  0.5009690000000  0.5350250000000  0.5185960000000 1.0
C      1  0.5189350000000  0.5002040000000  0.5347660000000 1.0
C      1  0.5351070000000  0.5188970000000  0.5000660000000 1.0
C      1  0.5001750000000  0.4649690000000  0.4805280000000 1.0
C      1  0.4990460000000  0.4647470000000  0.5185990000000 1.0
C      1  0.4998290000000  0.5349760000000  0.4805270000000 1.0
C      1  0.5194900000000  0.5000070000000  0.4647470000000 1.0
C      1  0.4807640000000  0.4996830000000  0.5346610000000 1.0
C      1  0.4812200000000  0.5004370000000  0.4644150000000 1.0
C      1  0.5350040000000  0.4810400000000  0.4991330000000 1.0
C      1  0.4648040000000  0.4807000000000  0.5002270000000 1.0
C      1  0.4649460000000  0.5185710000000  0.4989520000000 1.0
C      1  0.5108410000000  0.5875270000000  0.5003620000000 1.0
C      1  0.5878160000000  0.4999290000000  0.5100980000000 1.0
C      1  0.4999340000000  0.5107220000000  0.5871360000000 1.0
C      1  0.5108340000000  0.4122550000000  0.4990450000000 1.0
C      1  0.4891780000000  0.5874550000000  0.4990800000000 1.0
C      1  0.4891050000000  0.4124330000000  0.5000230000000 1.0
C      1  0.5872680000000  0.4993070000000  0.4884250000000 1.0
C      1  0.4125490000000  0.5009190000000  0.4883420000000 1.0
C      1  0.4121290000000  0.4999970000000  0.5099470000000 1.0
C      1  0.5003360000000  0.4890720000000  0.4117880000000 1.0
C      1  0.4995370000000  0.5105580000000  0.4120600000000 1.0
C      1  0.4994840000000  0.4890210000000  0.5871010000000 1.0
C      1  0.5104840000000  0.5003920000000  0.5871540000000 1.0
C      1  0.5880180000000  0.5102710000000  0.4997590000000 1.0
C      1  0.5000980000000  0.5876410000000  0.5103450000000 1.0
C      1  0.5108130000000  0.4994860000000  0.4118920000000 1.0
C      1  0.4888510000000  0.4992910000000  0.5870800000000 1.0
C      1  0.4890650000000  0.4999550000000  0.4121400000000 1.0
C      1  0.5871560000000  0.4886520000000  0.4991770000000 1.0
C      1  0.4121030000000  0.4896880000000  0.4995530000000 1.0
C      1  0.4125850000000  0.5113630000000  0.4991900000000 1.0
C      1  0.5004240000000  0.4123550000000  0.4885550000000 1.0
C      1  0.4997920000000  0.4122020000000  0.5101770000000 1.0
C      1  0.4998120000000  0.5874350000000  0.4887060000000 1.0
C      1  0.4573380000000  0.5064270000000  0.4309640000000 1.0
C      1  0.5053860000000  0.4313790000000  0.4558320000000 1.0
C      1  0.4308000000000  0.4572320000000  0.5067340000000 1.0
C      1  0.4559560000000  0.4948040000000  0.5681470000000 1.0
C      1  0.5433050000000  0.5051560000000  0.5682840000000 1.0
C      1  0.5429340000000  0.4932660000000  0.4307590000000 1.0
C      1  0.5073120000000  0.5684780000000  0.5424810000000 1.0
C      1  0.4925900000000  0.4312000000000  0.5424210000000 1.0
C      1  0.4945560000000  0.5686750000000  0.4559580000000 1.0
C      1  0.4317610000000  0.5427390000000  0.4930870000000 1.0
C      1  0.5682620000000  0.4569870000000  0.4932050000000 1.0
C      1  0.5694260000000  0.5426310000000  0.5060750000000 1.0
C      1  0.4559450000000  0.4310740000000  0.5049610000000 1.0
C      1  0.5068110000000  0.4574460000000  0.4308430000000 1.0
C      1  0.4312100000000  0.5052150000000  0.4559190000000 1.0
C      1  0.4571650000000  0.5683720000000  0.4930510000000 1.0
C      1  0.5436690000000  0.5684780000000  0.5056530000000 1.0
C      1  0.5427970000000  0.4313100000000  0.4929620000000 1.0
C      1  0.5059990000000  0.5433400000000  0.5684730000000 1.0
C      1  0.4931620000000  0.5427020000000  0.4309500000000 1.0
C      1  0.4928680000000  0.4567520000000  0.5681050000000 1.0
C      1  0.4308920000000  0.4932070000000  0.5419340000000 1.0
C      1  0.5688180000000  0.4944040000000  0.4561000000000 1.0
C      1  0.5687980000000  0.5064490000000  0.5422470000000 1.0
C      1  0.4560610000000  0.5330570000000  0.5687570000000 1.0
C      1  0.5347250000000  0.5701610000000  0.4557550000000 1.0
C      1  0.5600110000000  0.4609080000000  0.5345590000000 1.0
C      1  0.4610180000000  0.4647010000000  0.4390710000000 1.0
C      1  0.5402040000000  0.5355320000000  0.4344130000000 1.0
C      1  0.5434640000000  0.4666960000000  0.5693480000000 1.0
C      1  0.5303390000000  0.4298320000000  0.5462710000000 1.0
C      1  0.4698390000000  0.5698540000000  0.5463170000000 1.0
C      1  0.4670430000000  0.4303870000000  0.4555050000000 1.0
C      1  0.5645810000000  0.5455540000000  0.4712040000000 1.0
C      1  0.4303370000000  0.4525340000000  0.4692480000000 1.0
C      1  0.4398430000000  0.5389910000000  0.5345600000000 1.0
C      1  0.4603440000000  0.5653480000000  0.5351390000000 1.0
C      1  0.5339500000000  0.4556770000000  0.5697270000000 1.0
C      1  0.5605850000000  0.5348870000000  0.4608190000000 1.0
C      1  0.4559890000000  0.4298630000000  0.4649440000000 1.0
C      1  0.5397140000000  0.4344180000000  0.5350250000000 1.0
C      1  0.5442450000000  0.5696130000000  0.4667640000000 1.0
C      1  0.5307330000000  0.5467790000000  0.4300030000000 1.0
C      1  0.4655340000000  0.5440860000000  0.5693300000000 1.0
C      1  0.4715430000000  0.4541100000000  0.4349040000000 1.0
C      1  0.5640550000000  0.4713210000000  0.5452330000000 1.0
C      1  0.4346560000000  0.4637010000000  0.4597200000000 1.0
C      1  0.4357080000000  0.5285650000000  0.5452030000000 1.0
C      1  0.4773820000000  0.4412450000000  0.4972410000000 1.0
C      1  0.4412670000000  0.4977430000000  0.4774690000000 1.0
C      1  0.4989310000000  0.4784120000000  0.4411710000000 1.0
C      1  0.4783820000000  0.5583710000000  0.5007600000000 1.0
C      1  0.5215800000000  0.4413290000000  0.5007020000000 1.0
C      1  0.5224920000000  0.5584970000000  0.4974030000000 1.0
C      1  0.4414120000000  0.5009850000000  0.5210910000000 1.0
C      1  0.5583440000000  0.4987260000000  0.5213870000000 1.0
C      1  0.5584100000000  0.5017530000000  0.4775000000000 1.0
C      1  0.4980440000000  0.5221620000000  0.5582650000000 1.0
C      1  0.5010780000000  0.4777590000000  0.5580930000000 1.0
C      1  0.5014210000000  0.5218520000000  0.4409820000000 1.0
C      1  0.4785420000000  0.4991570000000  0.4412070000000 1.0
C      1  0.4411230000000  0.4778200000000  0.4983850000000 1.0
C      1  0.4975360000000  0.4413670000000  0.4772070000000 1.0
C      1  0.4774920000000  0.5023900000000  0.5581410000000 1.0
C      1  0.5219830000000  0.5011410000000  0.4410190000000 1.0
C      1  0.5218350000000  0.4976570000000  0.5582100000000 1.0
C      1  0.4417040000000  0.5213690000000  0.5004080000000 1.0
C      1  0.5588650000000  0.5216630000000  0.4979230000000 1.0
C      1  0.5581910000000  0.4782100000000  0.5006720000000 1.0
C      1  0.4992510000000  0.5585530000000  0.5213990000000 1.0
C      1  0.5023750000000  0.5585640000000  0.4773540000000 1.0
C      1  0.5009230000000  0.4411560000000  0.5213620000000 1.0
C      1  0.4226860000000  0.4716170000000  0.4632670000000 1.0
C      1  0.4741740000000  0.4620350000000  0.4228260000000 1.0
C      1  0.4629650000000  0.4193340000000  0.4724900000000 1.0
C      1  0.4234770000000  0.5259890000000  0.5374790000000 1.0
C      1  0.5763700000000  0.4738780000000  0.5376160000000 1.0
C      1  0.5741970000000  0.5286270000000  0.4624580000000 1.0
C      1  0.4730090000000  0.5370610000000  0.5798220000000 1.0
C      1  0.5260590000000  0.4627290000000  0.5798230000000 1.0
C      1  0.5257410000000  0.5374260000000  0.4195850000000 1.0
C      1  0.4639770000000  0.5770830000000  0.5270280000000 1.0
C      1  0.5360910000000  0.4226690000000  0.5269470000000 1.0
C      1  0.5373100000000  0.5805040000000  0.4737240000000 1.0
C      1  0.4197640000000  0.4617610000000  0.4741350000000 1.0
C      1  0.4737530000000  0.4193590000000  0.4624090000000 1.0
C      1  0.4630790000000  0.4715200000000  0.4258870000000 1.0
C      1  0.4265590000000  0.5370170000000  0.5279020000000 1.0
C      1  0.5770520000000  0.5381230000000  0.4736070000000 1.0
C      1  0.5734050000000  0.4628080000000  0.5280310000000 1.0
C      1  0.4747500000000  0.5802180000000  0.5369310000000 1.0
C      1  0.5271800000000  0.5805250000000  0.4629250000000 1.0
C      1  0.5253350000000  0.4195090000000  0.5368680000000 1.0
C      1  0.4628420000000  0.5263270000000  0.5798700000000 1.0
C      1  0.5365700000000  0.5275140000000  0.4225790000000 1.0
C      1  0.5362330000000  0.4735220000000  0.5800910000000 1.0
C      1  0.5660660000000  0.4873610000000  0.5215990000000 1.0
C      1  0.4870020000000  0.5226680000000  0.5666010000000 1.0
C      1  0.5226270000000  0.5672660000000  0.4867990000000 1.0
C      1  0.5657520000000  0.5131850000000  0.4768270000000 1.0
C      1  0.4328930000000  0.4867650000000  0.4776240000000 1.0
C      1  0.4339160000000  0.5124910000000  0.5215050000000 1.0
C      1  0.4875100000000  0.4780760000000  0.4335390000000 1.0
C      1  0.5125180000000  0.5219910000000  0.4327790000000 1.0
C      1  0.5122340000000  0.4771020000000  0.5662910000000 1.0
C      1  0.5218380000000  0.4333190000000  0.5119570000000 1.0
C      1  0.4782580000000  0.5664150000000  0.5119970000000 1.0
C      1  0.4772390000000  0.4326210000000  0.4864390000000 1.0
C      1  0.5669610000000  0.5219790000000  0.4869050000000 1.0
C      1  0.4879580000000  0.5665230000000  0.5216390000000 1.0
C      1  0.5216680000000  0.4868140000000  0.5667390000000 1.0
C      1  0.5649550000000  0.4773040000000  0.5125140000000 1.0
C      1  0.4329770000000  0.4771910000000  0.4872580000000 1.0
C      1  0.4351350000000  0.5225030000000  0.5123810000000 1.0
C      1  0.4869300000000  0.4325790000000  0.4771130000000 1.0
C      1  0.5121710000000  0.4331440000000  0.5215980000000 1.0
C      1  0.5132690000000  0.5670830000000  0.4771140000000 1.0
C      1  0.5222810000000  0.5124200000000  0.4330400000000 1.0
C      1  0.4776010000000  0.5130170000000  0.5668900000000 1.0
C      1  0.4773510000000  0.4870740000000  0.4348200000000 1.0
C      1  0.5117890000000  0.5006880000000  0.4516130000000 1.0
C      1  0.5000750000000  0.4516170000000  0.5108760000000 1.0
C      1  0.4519720000000  0.5108150000000  0.4996120000000 1.0
C      1  0.5112480000000  0.4992460000000  0.5479220000000 1.0
C      1  0.4881650000000  0.5007940000000  0.5479040000000 1.0
C      1  0.4889980000000  0.4997970000000  0.4515350000000 1.0
C      1  0.5009000000000  0.5481840000000  0.4879660000000 1.0
C      1  0.4989630000000  0.4516860000000  0.4878090000000 1.0
C      1  0.4999710000000  0.5481090000000  0.5109190000000 1.0
C      1  0.4517240000000  0.4880880000000  0.4989330000000 1.0
C      1  0.5482430000000  0.5115080000000  0.4989180000000 1.0
C      1  0.5479910000000  0.4887490000000  0.4999300000000 1.0
C      1  0.5111680000000  0.4517630000000  0.5000310000000 1.0
C      1  0.5007860000000  0.5115740000000  0.4515500000000 1.0
C      1  0.4518740000000  0.5000860000000  0.5107920000000 1.0
C      1  0.5119290000000  0.5481930000000  0.4987490000000 1.0
C      1  0.4888130000000  0.5479710000000  0.5000490000000 1.0
C      1  0.4880690000000  0.4515130000000  0.4987490000000 1.0
C      1  0.5000320000000  0.4884820000000  0.5478800000000 1.0
C      1  0.4998370000000  0.4887300000000  0.4516380000000 1.0
C      1  0.4993440000000  0.5115350000000  0.5479520000000 1.0
C      1  0.4518680000000  0.4987340000000  0.4877530000000 1.0
C      1  0.5479800000000  0.4995730000000  0.5110480000000 1.0
C      1  0.5482110000000  0.5005990000000  0.4881430000000 1.0
C      1  0.5360250000000  0.4859600000000  0.4747520000000 1.0
C      1  0.4853130000000  0.4749050000000  0.5355420000000 1.0
C      1  0.4751040000000  0.5356310000000  0.4855060000000 1.0
C      1  0.5358480000000  0.5143080000000  0.5247290000000 1.0
C      1  0.4640240000000  0.4854530000000  0.5246230000000 1.0
C      1  0.4640650000000  0.5135170000000  0.4745500000000 1.0
C      1  0.4857030000000  0.5249410000000  0.4638760000000 1.0
C      1  0.5144780000000  0.4751190000000  0.4639060000000 1.0
C      1  0.5143240000000  0.5248060000000  0.5357160000000 1.0
C      1  0.4747310000000  0.4636870000000  0.5136050000000 1.0
C      1  0.5253310000000  0.5359050000000  0.5136670000000 1.0
C      1  0.5248440000000  0.4640840000000  0.4855610000000 1.0
C      1  0.5357310000000  0.4750640000000  0.4853260000000 1.0
C      1  0.4860280000000  0.5359660000000  0.4747920000000 1.0
C      1  0.4747910000000  0.4859370000000  0.5357090000000 1.0
C      1  0.5361500000000  0.5248780000000  0.5138240000000 1.0
C      1  0.4642630000000  0.5245380000000  0.4851800000000 1.0
C      1  0.4639510000000  0.4747660000000  0.5140060000000 1.0
C      1  0.4852960000000  0.4638950000000  0.5245380000000 1.0
C      1  0.5139580000000  0.4639800000000  0.4747610000000 1.0
C      1  0.5147170000000  0.5357540000000  0.5246300000000 1.0
C      1  0.4750680000000  0.5142080000000  0.4638240000000 1.0
C      1  0.5249280000000  0.5139360000000  0.5357570000000 1.0
C      1  0.5251550000000  0.4859390000000  0.4638700000000 1.0
C      1  0.5071140000000  0.4684170000000  0.5305900000000 1.0
C      1  0.4685560000000  0.5302660000000  0.5077780000000 1.0
C      1  0.5315450000000  0.5083790000000  0.4692860000000 1.0
C      1  0.5077240000000  0.5308660000000  0.4683070000000 1.0
C      1  0.4921910000000  0.4691700000000  0.4683760000000 1.0
C      1  0.4927720000000  0.5314540000000  0.5305100000000 1.0
C      1  0.5313070000000  0.4694430000000  0.5079580000000 1.0
C      1  0.5310660000000  0.4920700000000  0.5306860000000 1.0
C      1  0.4686880000000  0.5077470000000  0.5304150000000 1.0
C      1  0.4696820000000  0.4914330000000  0.4678940000000 1.0
C      1  0.5313010000000  0.5308500000000  0.4917540000000 1.0
C      1  0.4685730000000  0.4689470000000  0.4919520000000 1.0
C      1  0.5369880000000  0.4628260000000  0.4626350000000 1.0
C      1  0.4628940000000  0.4624850000000  0.5370150000000 1.0
C      1  0.4630090000000  0.5371190000000  0.4626630000000 1.0
C      1  0.5384680000000  0.5380260000000  0.5348240000000 1.0
END
