TITL C-3151192-8964-150 -0.552360803457672 1000000 -1646.37608448899 0 0 240 (C1) n - 1
REM
REM in /scratch/bkarasulu/Only-C240/Try4-Only-SYMOP24
REM
REM
REM
REM
REM
REM ./C.cell (018bbde761a0794ceee8127bb1f748ef)
REM
REM compiler GCC version 9.2.1 20190827 (Red Hat 9.2.1-1)
REM options -cpp -mtune=generic -march=x86-64 -g -O0 -fpre-include=/usr/include/finclude/math-vector-fortran.h
REM seed 1034945257 -544736375 -222805102 -1759918297 296831250 549017622 -1974766951 1349849805 86971290 -2081789804 502480634 1204745194 49757422 1339005166 -1574929682 -1993742533 1238230570 -471799107 -952042576 -903736458 1514235470 -1060239772 1673317952 -727777882 1725244630 -1373941689 1042445535 207394551 -1286694874 717301171 -758283829 134343125 -541391900
REM
CELL 1.54180  100.00000  100.00000  100.00000   90.00000   90.00000   90.00000
LATT -1
SFAC C  
C      1  0.4526560000000  0.5043400000000  0.5211070000000 1.0
C      1  0.5228370000000  0.4570660000000  0.5084660000000 1.0
C      1  0.5075050000000  0.5211880000000  0.4538480000000 1.0
C      1  0.4575790000000  0.4931530000000  0.4796860000000 1.0
C      1  0.5456840000000  0.4933500000000  0.5245470000000 1.0
C      1  0.5430900000000  0.5078540000000  0.4782730000000 1.0
C      1  0.5218800000000  0.5468160000000  0.4919380000000 1.0
C      1  0.4773740000000  0.5400440000000  0.5041700000000 1.0
C      1  0.4772160000000  0.4527070000000  0.4936830000000 1.0
C      1  0.5067040000000  0.4780940000000  0.5423440000000 1.0
C      1  0.4949700000000  0.4809060000000  0.4565000000000 1.0
C      1  0.4910220000000  0.5225650000000  0.5402750000000 1.0
C      1  0.5431600000000  0.5069280000000  0.5238960000000 1.0
C      1  0.4778890000000  0.4526300000000  0.5073520000000 1.0
C      1  0.4939250000000  0.5194900000000  0.4516760000000 1.0
C      1  0.5439230000000  0.4942280000000  0.4792420000000 1.0
C      1  0.4551690000000  0.4907210000000  0.5228640000000 1.0
C      1  0.4584220000000  0.5067840000000  0.4767100000000 1.0
C      1  0.4783820000000  0.5405650000000  0.4902860000000 1.0
C      1  0.5219090000000  0.5468290000000  0.5058220000000 1.0
C      1  0.5248250000000  0.4557550000000  0.4947540000000 1.0
C      1  0.4930090000000  0.4795140000000  0.5416170000000 1.0
C      1  0.5087580000000  0.4790920000000  0.4556560000000 1.0
C      1  0.5046800000000  0.5206420000000  0.5407710000000 1.0
C      1  0.4868180000000  0.4845910000000  0.4863400000000 1.0
C      1  0.4881420000000  0.4958960000000  0.4778980000000 1.0
C      1  0.4766880000000  0.4861220000000  0.4962780000000 1.0
C      1  0.4949590000000  0.5219250000000  0.5129720000000 1.0
C      1  0.5093280000000  0.5251020000000  0.4856910000000 1.0
C      1  0.5045210000000  0.4761450000000  0.5142630000000 1.0
C      1  0.4849160000000  0.5103120000000  0.5182770000000 1.0
C      1  0.5155960000000  0.5064410000000  0.4742090000000 1.0
C      1  0.5143360000000  0.4879760000000  0.5200380000000 1.0
C      1  0.4736070000000  0.5117430000000  0.5075950000000 1.0
C      1  0.5200010000000  0.5155680000000  0.4844310000000 1.0
C      1  0.5261820000000  0.4860120000000  0.5104100000000 1.0
C      1  0.5140400000000  0.4851470000000  0.4874450000000 1.0
C      1  0.5152360000000  0.4928070000000  0.4754410000000 1.0
C      1  0.5255350000000  0.4866750000000  0.4963020000000 1.0
C      1  0.5092190000000  0.5242500000000  0.5132380000000 1.0
C      1  0.4953310000000  0.5217920000000  0.4836520000000 1.0
C      1  0.4904120000000  0.4742210000000  0.5135860000000 1.0
C      1  0.5125690000000  0.5029630000000  0.5223400000000 1.0
C      1  0.4882270000000  0.5089480000000  0.4853410000000 1.0
C      1  0.4858530000000  0.4951280000000  0.5207840000000 1.0
C      1  0.5191430000000  0.5135010000000  0.5145350000000 1.0
C      1  0.4761540000000  0.5116880000000  0.4936360000000 1.0
C      1  0.4791470000000  0.4849070000000  0.5112630000000 1.0
C      1  0.4848290000000  0.4465000000000  0.5358960000000 1.0
C      1  0.5382230000000  0.4846910000000  0.4487480000000 1.0
C      1  0.4481850000000  0.5340440000000  0.4817260000000 1.0
C      1  0.4839130000000  0.5505300000000  0.4624450000000 1.0
C      1  0.5116670000000  0.5541930000000  0.5328230000000 1.0
C      1  0.5178990000000  0.4500680000000  0.4721660000000 1.0
C      1  0.5330240000000  0.5153960000000  0.5508550000000 1.0
C      1  0.4651710000000  0.5127830000000  0.4430430000000 1.0
C      1  0.4657840000000  0.4866510000000  0.5515750000000 1.0
C      1  0.4494050000000  0.4615240000000  0.5166040000000 1.0
C      1  0.5560800000000  0.4675000000000  0.4857890000000 1.0
C      1  0.5500160000000  0.5350650000000  0.5174790000000 1.0
C      1  0.5155560000000  0.4492810000000  0.5370430000000 1.0
C      1  0.4642420000000  0.4834240000000  0.4497570000000 1.0
C      1  0.5508020000000  0.5351380000000  0.4866750000000 1.0
C      1  0.5151460000000  0.5514640000000  0.4620400000000 1.0
C      1  0.4818570000000  0.5510330000000  0.5317420000000 1.0
C      1  0.4855800000000  0.4488010000000  0.4715890000000 1.0
C      1  0.4634910000000  0.5171550000000  0.5495680000000 1.0
C      1  0.5362700000000  0.5160340000000  0.4464910000000 1.0
C      1  0.5340380000000  0.4845070000000  0.5530880000000 1.0
C      1  0.5554360000000  0.4660740000000  0.5166540000000 1.0
C      1  0.4482010000000  0.4649290000000  0.4855700000000 1.0
C      1  0.4436840000000  0.5312710000000  0.5111550000000 1.0
C      1  0.5148620000000  0.5304600000000  0.4466980000000 1.0
C      1  0.4461200000000  0.5136850000000  0.5299830000000 1.0
C      1  0.5322700000000  0.4517680000000  0.5175210000000 1.0
C      1  0.5127070000000  0.4699540000000  0.5520880000000 1.0
C      1  0.4862610000000  0.4702110000000  0.4543520000000 1.0
C      1  0.4845020000000  0.5319090000000  0.5484650000000 1.0
C      1  0.4499190000000  0.4857150000000  0.4708780000000 1.0
C      1  0.5526470000000  0.4852990000000  0.5343620000000 1.0
C      1  0.5504450000000  0.5156420000000  0.4689530000000 1.0
C      1  0.5308350000000  0.5529780000000  0.4829900000000 1.0
C      1  0.4667520000000  0.5461190000000  0.5114510000000 1.0
C      1  0.4665810000000  0.4461540000000  0.4863110000000 1.0
C      1  0.4848160000000  0.5294520000000  0.4461800000000 1.0
C      1  0.5509080000000  0.5145920000000  0.5324550000000 1.0
C      1  0.4695440000000  0.4449000000000  0.5153380000000 1.0
C      1  0.4851330000000  0.4698760000000  0.5487600000000 1.0
C      1  0.5171370000000  0.4686040000000  0.4511410000000 1.0
C      1  0.5124900000000  0.5306090000000  0.5468560000000 1.0
C      1  0.5523900000000  0.4872900000000  0.4705210000000 1.0
C      1  0.4480580000000  0.4824520000000  0.5320660000000 1.0
C      1  0.4512710000000  0.5136980000000  0.4661780000000 1.0
C      1  0.4692970000000  0.5484730000000  0.4834080000000 1.0
C      1  0.5308300000000  0.5529710000000  0.5152480000000 1.0
C      1  0.5364560000000  0.4499800000000  0.4881320000000 1.0
C      1  0.5385780000000  0.4857950000000  0.4894410000000 1.0
C      1  0.4874360000000  0.5338810000000  0.4814490000000 1.0
C      1  0.4853570000000  0.4899080000000  0.5348420000000 1.0
C      1  0.5336260000000  0.5150650000000  0.5154550000000 1.0
C      1  0.4651340000000  0.5156400000000  0.4854770000000 1.0
C      1  0.4646990000000  0.4818230000000  0.5159450000000 1.0
C      1  0.4867230000000  0.4605090000000  0.5152420000000 1.0
C      1  0.5075200000000  0.4715950000000  0.4852550000000 1.0
C      1  0.5123260000000  0.5385420000000  0.5132190000000 1.0
C      1  0.4876480000000  0.5076110000000  0.4550370000000 1.0
C      1  0.5119340000000  0.5090600000000  0.5360360000000 1.0
C      1  0.5177180000000  0.4874550000000  0.4626630000000 1.0
C      1  0.4632550000000  0.4858250000000  0.4908110000000 1.0
C      1  0.5123570000000  0.5391600000000  0.4843550000000 1.0
C      1  0.5166200000000  0.4847050000000  0.5346520000000 1.0
C      1  0.4595140000000  0.5117790000000  0.5105800000000 1.0
C      1  0.5341210000000  0.5164780000000  0.4864730000000 1.0
C      1  0.5394290000000  0.4848010000000  0.5151100000000 1.0
C      1  0.5118370000000  0.4632670000000  0.5156000000000 1.0
C      1  0.4934420000000  0.4712310000000  0.4846370000000 1.0
C      1  0.4872340000000  0.5343970000000  0.5129680000000 1.0
C      1  0.5157860000000  0.5120290000000  0.4608690000000 1.0
C      1  0.4819160000000  0.5150170000000  0.5324540000000 1.0
C      1  0.4880010000000  0.4934490000000  0.4624020000000 1.0
C      1  0.4520930000000  0.5212380000000  0.5411220000000 1.0
C      1  0.5459880000000  0.4545840000000  0.5207250000000 1.0
C      1  0.5178470000000  0.5442150000000  0.4489420000000 1.0
C      1  0.4510390000000  0.4827900000000  0.4567610000000 1.0
C      1  0.5459370000000  0.4792300000000  0.5459430000000 1.0
C      1  0.5458030000000  0.5215560000000  0.4563920000000 1.0
C      1  0.5439310000000  0.5476000000000  0.4808480000000 1.0
C      1  0.4527280000000  0.5435940000000  0.5141140000000 1.0
C      1  0.4559310000000  0.4536340000000  0.4799930000000 1.0
C      1  0.5161930000000  0.4561850000000  0.5506080000000 1.0
C      1  0.4842500000000  0.4564210000000  0.4582530000000 1.0
C      1  0.4811020000000  0.5456810000000  0.5459980000000 1.0
C      1  0.5473780000000  0.5180490000000  0.5459020000000 1.0
C      1  0.4558580000000  0.4479030000000  0.5190770000000 1.0
C      1  0.4788870000000  0.5413720000000  0.4519580000000 1.0
C      1  0.5511570000000  0.4834970000000  0.4566540000000 1.0
C      1  0.4532200000000  0.4806000000000  0.5451550000000 1.0
C      1  0.4538490000000  0.5164830000000  0.4522230000000 1.0
C      1  0.4550800000000  0.5477520000000  0.4809080000000 1.0
C      1  0.5417180000000  0.5462110000000  0.5223470000000 1.0
C      1  0.5472610000000  0.4567820000000  0.4812100000000 1.0
C      1  0.4794910000000  0.4569860000000  0.5450750000000 1.0
C      1  0.5201140000000  0.4563550000000  0.4581640000000 1.0
C      1  0.5149150000000  0.5447430000000  0.5447840000000 1.0
C      1  0.4552260000000  0.5449950000000  0.5284960000000 1.0
C      1  0.5279620000000  0.4591890000000  0.5582900000000 1.0
C      1  0.5478920000000  0.5348060000000  0.4618780000000 1.0
C      1  0.4618890000000  0.4511880000000  0.4668360000000 1.0
C      1  0.5424550000000  0.4546020000000  0.5349790000000 1.0
C      1  0.5411820000000  0.5466730000000  0.4664200000000 1.0
C      1  0.5300460000000  0.5417230000000  0.4416160000000 1.0
C      1  0.4687250000000  0.5431540000000  0.5530060000000 1.0
C      1  0.4694120000000  0.4583890000000  0.4570110000000 1.0
C      1  0.5492100000000  0.4660060000000  0.5408330000000 1.0
C      1  0.4436290000000  0.4708230000000  0.4597190000000 1.0
C      1  0.4485980000000  0.5338450000000  0.5348750000000 1.0
C      1  0.5355960000000  0.5492470000000  0.5351410000000 1.0
C      1  0.4663790000000  0.4617600000000  0.5487750000000 1.0
C      1  0.4538420000000  0.5309380000000  0.4550890000000 1.0
C      1  0.5416200000000  0.4534280000000  0.4681380000000 1.0
C      1  0.4589850000000  0.4414260000000  0.5313940000000 1.0
C      1  0.4579020000000  0.5551160000000  0.4688370000000 1.0
C      1  0.4654980000000  0.5364500000000  0.4485140000000 1.0
C      1  0.5292710000000  0.5421540000000  0.5459280000000 1.0
C      1  0.5346960000000  0.4594160000000  0.4570890000000 1.0
C      1  0.4540540000000  0.4660360000000  0.5427330000000 1.0
C      1  0.5597850000000  0.4726090000000  0.4598280000000 1.0
C      1  0.5542440000000  0.5304320000000  0.5436600000000 1.0
C      1  0.5479040000000  0.4767020000000  0.4948990000000 1.0
C      1  0.4930810000000  0.5426930000000  0.4716900000000 1.0
C      1  0.4746370000000  0.4951740000000  0.5425290000000 1.0
C      1  0.5410780000000  0.5251650000000  0.5084710000000 1.0
C      1  0.4553860000000  0.5242420000000  0.4908780000000 1.0
C      1  0.4575470000000  0.4719350000000  0.5085200000000 1.0
C      1  0.4933120000000  0.4536950000000  0.5257140000000 1.0
C      1  0.5160200000000  0.4603080000000  0.4844480000000 1.0
C      1  0.5047910000000  0.5456430000000  0.5228310000000 1.0
C      1  0.4744890000000  0.5056130000000  0.4516900000000 1.0
C      1  0.5237640000000  0.5056160000000  0.5431630000000 1.0
C      1  0.5279750000000  0.4934850000000  0.4551570000000 1.0
C      1  0.4564190000000  0.4742260000000  0.4951630000000 1.0
C      1  0.5064740000000  0.5443990000000  0.4725820000000 1.0
C      1  0.5253290000000  0.4921720000000  0.5430840000000 1.0
C      1  0.4523770000000  0.5219430000000  0.5038510000000 1.0
C      1  0.5415080000000  0.5256110000000  0.4948860000000 1.0
C      1  0.5479430000000  0.4758320000000  0.5083100000000 1.0
C      1  0.5066930000000  0.4552050000000  0.5261430000000 1.0
C      1  0.4857700000000  0.4591900000000  0.4841350000000 1.0
C      1  0.4914230000000  0.5438070000000  0.5226380000000 1.0
C      1  0.5266870000000  0.5068370000000  0.4538150000000 1.0
C      1  0.4728870000000  0.5084810000000  0.5410730000000 1.0
C      1  0.4736440000000  0.4926040000000  0.4562370000000 1.0
C      1  0.4607260000000  0.4960620000000  0.5627110000000 1.0
C      1  0.5666590000000  0.4615140000000  0.4951690000000 1.0
C      1  0.4932090000000  0.5615470000000  0.4571940000000 1.0
C      1  0.4619160000000  0.5019100000000  0.4323580000000 1.0
C      1  0.5356250000000  0.5072860000000  0.5641010000000 1.0
C      1  0.5419720000000  0.4934300000000  0.4362940000000 1.0
C      1  0.5607680000000  0.5404760000000  0.5082830000000 1.0
C      1  0.4340400000000  0.5355450000000  0.4887680000000 1.0
C      1  0.4371730000000  0.4590650000000  0.5074200000000 1.0
C      1  0.4950780000000  0.4369480000000  0.5420600000000 1.0
C      1  0.5081210000000  0.4396170000000  0.4750180000000 1.0
C      1  0.5014660000000  0.5656710000000  0.5349060000000 1.0
C      1  0.5371740000000  0.4950390000000  0.5636940000000 1.0
C      1  0.4375130000000  0.4594100000000  0.4951060000000 1.0
C      1  0.5054290000000  0.5630490000000  0.4580710000000 1.0
C      1  0.5422280000000  0.5058000000000  0.4367030000000 1.0
C      1  0.4590080000000  0.5081050000000  0.5609500000000 1.0
C      1  0.4617230000000  0.4896430000000  0.4347650000000 1.0
C      1  0.4322610000000  0.5345750000000  0.5010220000000 1.0
C      1  0.5619500000000  0.5397560000000  0.4960670000000 1.0
C      1  0.5669700000000  0.4615020000000  0.5075060000000 1.0
C      1  0.5074000000000  0.4362300000000  0.5411020000000 1.0
C      1  0.4957750000000  0.4389710000000  0.4749280000000 1.0
C      1  0.4891090000000  0.5653180000000  0.5335700000000 1.0
C      1  0.5254840000000  0.5566730000000  0.5280500000000 1.0
C      1  0.5264770000000  0.5283950000000  0.5494300000000 1.0
C      1  0.5550360000000  0.5280840000000  0.5298800000000 1.0
C      1  0.5318310000000  0.4459360000000  0.4752230000000 1.0
C      1  0.4727370000000  0.4410770000000  0.5287630000000 1.0
C      1  0.4716760000000  0.5541760000000  0.4704330000000 1.0
C      1  0.5317680000000  0.4712950000000  0.4496630000000 1.0
C      1  0.4725240000000  0.4739540000000  0.5537850000000 1.0
C      1  0.4717670000000  0.5257320000000  0.4411670000000 1.0
C      1  0.5598240000000  0.4753320000000  0.4735520000000 1.0
C      1  0.4483150000000  0.4679690000000  0.5297650000000 1.0
C      1  0.4495100000000  0.5279990000000  0.4684760000000 1.0
C      1  0.4688170000000  0.5489340000000  0.5255210000000 1.0
C      1  0.4710650000000  0.5295680000000  0.5534050000000 1.0
C      1  0.4416600000000  0.5262150000000  0.5247240000000 1.0
C      1  0.4718370000000  0.4435060000000  0.4734430000000 1.0
C      1  0.5290430000000  0.4503720000000  0.5315170000000 1.0
C      1  0.5282410000000  0.5524720000000  0.4685230000000 1.0
C      1  0.4719070000000  0.4717220000000  0.4528020000000 1.0
C      1  0.5258760000000  0.4728030000000  0.5576720000000 1.0
C      1  0.5282680000000  0.5278910000000  0.4415930000000 1.0
C      1  0.4441050000000  0.4729000000000  0.4735650000000 1.0
C      1  0.5568610000000  0.4722660000000  0.5301960000000 1.0
C      1  0.5536060000000  0.5288280000000  0.4736600000000 1.0
END
