TITL C-3151192-8964-21 -7.9739672439938 1000000 -3657.49244454817 0 0 520 (C1) n - 1
REM
REM in /scratch/bkarasulu/Only-C240/Try4-Only-SYMOP24
REM
REM
REM
REM
REM
REM ./C.cell (018bbde761a0794ceee8127bb1f748ef)
REM
REM compiler GCC version 9.2.1 20190827 (Red Hat 9.2.1-1)
REM options -cpp -mtune=generic -march=x86-64 -g -O0 -fpre-include=/usr/include/finclude/math-vector-fortran.h
REM seed -1817047588 636800555 498272626 -211893945 2059033914 1195536270 413810774 -742670198 -1570300213 1275062397 1893910730 -519973840 918104709 1174966837 1166465312 -2011691997 1083802521 -255798376 743952648 320187035 2026994278 1410553560 -35036208 -251847352 77558906 936882076 328890210 -1093599196 -116025392 1807621425 -1506832724 -1947878253 951129241
REM
CELL 1.54180  100.00000  100.00000  100.00000   90.00000   90.00000   90.00000
LATT -1
SFAC C  
C      1  0.5202120000000  0.4966450000000  0.5590240000000 1.0
C      1  0.4977220000000  0.5582210000000  0.5201400000000 1.0
C      1  0.5615450000000  0.5172220000000  0.5004000000000 1.0
C      1  0.4825310000000  0.5001610000000  0.5612210000000 1.0
C      1  0.5194020000000  0.5024670000000  0.4422980000000 1.0
C      1  0.4783830000000  0.4968300000000  0.4428730000000 1.0
C      1  0.4995300000000  0.4383480000000  0.5176050000000 1.0
C      1  0.4972540000000  0.4429390000000  0.4779570000000 1.0
C      1  0.5025840000000  0.5594160000000  0.4803290000000 1.0
C      1  0.4428680000000  0.4795090000000  0.4987980000000 1.0
C      1  0.5581440000000  0.4772430000000  0.5031940000000 1.0
C      1  0.4407520000000  0.5193370000000  0.5029030000000 1.0
C      1  0.5002460000000  0.5175540000000  0.5613290000000 1.0
C      1  0.5617250000000  0.5002160000000  0.5173220000000 1.0
C      1  0.5194090000000  0.5581480000000  0.4987460000000 1.0
C      1  0.5031180000000  0.4800270000000  0.5589920000000 1.0
C      1  0.5003850000000  0.5173250000000  0.4395590000000 1.0
C      1  0.4980910000000  0.4782710000000  0.4432980000000 1.0
C      1  0.4416540000000  0.5015380000000  0.5194570000000 1.0
C      1  0.4422570000000  0.4958500000000  0.4791120000000 1.0
C      1  0.5609220000000  0.4997120000000  0.4831870000000 1.0
C      1  0.4772010000000  0.4424320000000  0.4974120000000 1.0
C      1  0.4820000000000  0.5611410000000  0.5000540000000 1.0
C      1  0.5209660000000  0.4418790000000  0.5001650000000 1.0
C      1  0.5760560000000  0.4656270000000  0.5208640000000 1.0
C      1  0.4686570000000  0.5212920000000  0.5749140000000 1.0
C      1  0.5191840000000  0.5785120000000  0.4626360000000 1.0
C      1  0.4212350000000  0.5371170000000  0.5193230000000 1.0
C      1  0.5745870000000  0.5318340000000  0.4789290000000 1.0
C      1  0.4243590000000  0.4685190000000  0.4730860000000 1.0
C      1  0.5340920000000  0.4768990000000  0.5759640000000 1.0
C      1  0.4677780000000  0.4776760000000  0.4235390000000 1.0
C      1  0.5308180000000  0.5265150000000  0.4236150000000 1.0
C      1  0.4779250000000  0.4251870000000  0.4680630000000 1.0
C      1  0.5191550000000  0.4242220000000  0.5339320000000 1.0
C      1  0.4732250000000  0.5762630000000  0.5300900000000 1.0
C      1  0.4637260000000  0.5763930000000  0.5188000000000 1.0
C      1  0.5230270000000  0.4661440000000  0.5759000000000 1.0
C      1  0.5749950000000  0.5212160000000  0.4682600000000 1.0
C      1  0.5305910000000  0.4235340000000  0.5247020000000 1.0
C      1  0.5301810000000  0.5771290000000  0.4726510000000 1.0
C      1  0.4666390000000  0.4243950000000  0.4783980000000 1.0
C      1  0.4792400000000  0.5319900000000  0.5753340000000 1.0
C      1  0.4791100000000  0.4673940000000  0.4239780000000 1.0
C      1  0.5193330000000  0.5357340000000  0.4233520000000 1.0
C      1  0.4230620000000  0.4792140000000  0.4627710000000 1.0
C      1  0.4226850000000  0.5273490000000  0.5305970000000 1.0
C      1  0.5741200000000  0.4773900000000  0.5307510000000 1.0
C      1  0.5284000000000  0.4405220000000  0.5476730000000 1.0
C      1  0.4382670000000  0.5498060000000  0.5276750000000 1.0
C      1  0.5542080000000  0.5309420000000  0.4341730000000 1.0
C      1  0.4688440000000  0.5663660000000  0.5539200000000 1.0
C      1  0.5277180000000  0.5615910000000  0.4499730000000 1.0
C      1  0.4731100000000  0.4401410000000  0.4512460000000 1.0
C      1  0.5624290000000  0.4461620000000  0.5265600000000 1.0
C      1  0.4351140000000  0.4456740000000  0.4692340000000 1.0
C      1  0.5599500000000  0.5512900000000  0.4711970000000 1.0
C      1  0.4520560000000  0.4721600000000  0.4394620000000 1.0
C      1  0.5495910000000  0.4713630000000  0.5597480000000 1.0
C      1  0.4489580000000  0.5291510000000  0.5602870000000 1.0
C      1  0.4342160000000  0.5311160000000  0.5537620000000 1.0
C      1  0.5543640000000  0.4329470000000  0.5295750000000 1.0
C      1  0.5283540000000  0.5494390000000  0.4401410000000 1.0
C      1  0.5588490000000  0.4711770000000  0.5470350000000 1.0
C      1  0.5612790000000  0.5286010000000  0.4482760000000 1.0
C      1  0.4409700000000  0.4709060000000  0.4508280000000 1.0
C      1  0.4502780000000  0.5598030000000  0.5281700000000 1.0
C      1  0.4488780000000  0.4388670000000  0.4725200000000 1.0
C      1  0.5534260000000  0.5659050000000  0.4690900000000 1.0
C      1  0.4737750000000  0.4505120000000  0.4391130000000 1.0
C      1  0.4715000000000  0.5522080000000  0.5615310000000 1.0
C      1  0.5281590000000  0.4503200000000  0.5598790000000 1.0
C      1  0.5601280000000  0.5182080000000  0.5361190000000 1.0
C      1  0.5196620000000  0.5344540000000  0.5602690000000 1.0
C      1  0.5358020000000  0.5584650000000  0.5190470000000 1.0
C      1  0.4416560000000  0.4814850000000  0.5361450000000 1.0
C      1  0.5597720000000  0.4810650000000  0.4655460000000 1.0
C      1  0.4409650000000  0.5173000000000  0.4639640000000 1.0
C      1  0.4822220000000  0.4640660000000  0.5596730000000 1.0
C      1  0.5194050000000  0.4645040000000  0.4410810000000 1.0
C      1  0.4812640000000  0.5348680000000  0.4408290000000 1.0
C      1  0.4636900000000  0.4400430000000  0.5196570000000 1.0
C      1  0.5367570000000  0.4405260000000  0.4800740000000 1.0
C      1  0.4644230000000  0.5585730000000  0.4809650000000 1.0
C      1  0.5187560000000  0.5583760000000  0.5363140000000 1.0
C      1  0.5365500000000  0.5174400000000  0.5597730000000 1.0
C      1  0.5602350000000  0.5353920000000  0.5193700000000 1.0
C      1  0.4813230000000  0.4406070000000  0.5358720000000 1.0
C      1  0.4814900000000  0.5586790000000  0.4638640000000 1.0
C      1  0.5193400000000  0.4406950000000  0.4637300000000 1.0
C      1  0.4654420000000  0.4809900000000  0.5599760000000 1.0
C      1  0.4640840000000  0.5181260000000  0.4404870000000 1.0
C      1  0.5360620000000  0.4817860000000  0.4423530000000 1.0
C      1  0.4409130000000  0.4640670000000  0.5194800000000 1.0
C      1  0.4409020000000  0.5347090000000  0.4812420000000 1.0
C      1  0.5603810000000  0.4636350000000  0.4813860000000 1.0
C      1  0.5638480000000  0.4462650000000  0.5418310000000 1.0
C      1  0.4469360000000  0.5438160000000  0.5635630000000 1.0
C      1  0.5425050000000  0.5633540000000  0.4467930000000 1.0
C      1  0.4365530000000  0.5532310000000  0.5425080000000 1.0
C      1  0.5634020000000  0.5532130000000  0.4565670000000 1.0
C      1  0.4374360000000  0.4453090000000  0.4552350000000 1.0
C      1  0.5529530000000  0.4568590000000  0.5611640000000 1.0
C      1  0.4493150000000  0.4574620000000  0.4373070000000 1.0
C      1  0.5543010000000  0.5448920000000  0.4358760000000 1.0
C      1  0.4590740000000  0.4372780000000  0.4477580000000 1.0
C      1  0.5427040000000  0.4368050000000  0.5517260000000 1.0
C      1  0.4550000000000  0.5643690000000  0.5541340000000 1.0
C      1  0.4466940000000  0.5631170000000  0.5424960000000 1.0
C      1  0.5427700000000  0.4470200000000  0.5615030000000 1.0
C      1  0.5637630000000  0.5435560000000  0.4467600000000 1.0
C      1  0.5543640000000  0.4353680000000  0.5434890000000 1.0
C      1  0.5541830000000  0.5643540000000  0.4550630000000 1.0
C      1  0.4487570000000  0.4364650000000  0.4572020000000 1.0
C      1  0.4565320000000  0.5537130000000  0.5638900000000 1.0
C      1  0.4592610000000  0.4475000000000  0.4376460000000 1.0
C      1  0.5426670000000  0.5531000000000  0.4369900000000 1.0
C      1  0.4385670000000  0.4568240000000  0.4466950000000 1.0
C      1  0.4357610000000  0.5451360000000  0.5543200000000 1.0
C      1  0.5627340000000  0.4569510000000  0.5507900000000 1.0
C      1  0.5047240000000  0.4384720000000  0.5512300000000 1.0
C      1  0.4370650000000  0.5518410000000  0.5033970000000 1.0
C      1  0.5504600000000  0.5050100000000  0.4431620000000 1.0
C      1  0.4953380000000  0.5573600000000  0.5507670000000 1.0
C      1  0.5034890000000  0.5625140000000  0.4472790000000 1.0
C      1  0.4966900000000  0.4382540000000  0.4483980000000 1.0
C      1  0.5646660000000  0.4476010000000  0.5023440000000 1.0
C      1  0.4411290000000  0.4491390000000  0.4967500000000 1.0
C      1  0.5613960000000  0.5490870000000  0.4952590000000 1.0
C      1  0.4486550000000  0.4955110000000  0.4361400000000 1.0
C      1  0.5517650000000  0.4943860000000  0.5614760000000 1.0
C      1  0.4513600000000  0.5051020000000  0.5617230000000 1.0
C      1  0.4430470000000  0.5054570000000  0.5498650000000 1.0
C      1  0.5527100000000  0.4393710000000  0.5018890000000 1.0
C      1  0.5040460000000  0.5514050000000  0.4377600000000 1.0
C      1  0.5617400000000  0.4944590000000  0.5501720000000 1.0
C      1  0.5623390000000  0.5047250000000  0.4513130000000 1.0
C      1  0.4384300000000  0.4948290000000  0.4469890000000 1.0
C      1  0.4480320000000  0.5615190000000  0.5037270000000 1.0
C      1  0.4490060000000  0.4369560000000  0.4968880000000 1.0
C      1  0.5494270000000  0.5572230000000  0.4948420000000 1.0
C      1  0.4971130000000  0.4482850000000  0.4371370000000 1.0
C      1  0.4957060000000  0.5490520000000  0.5625620000000 1.0
C      1  0.5049210000000  0.4486450000000  0.5621010000000 1.0
C      1  0.5007820000000  0.5353530000000  0.5186580000000 1.0
C      1  0.5370650000000  0.5191100000000  0.5007170000000 1.0
C      1  0.5186960000000  0.5009880000000  0.5361330000000 1.0
C      1  0.4990990000000  0.4630400000000  0.5191850000000 1.0
C      1  0.5001510000000  0.4651570000000  0.4831420000000 1.0
C      1  0.4991210000000  0.5360890000000  0.4816510000000 1.0
C      1  0.4657010000000  0.4821950000000  0.5005150000000 1.0
C      1  0.5356490000000  0.4813500000000  0.5012460000000 1.0
C      1  0.4639690000000  0.5185200000000  0.4993710000000 1.0
C      1  0.4809840000000  0.4997890000000  0.5369040000000 1.0
C      1  0.5184180000000  0.4990660000000  0.4653860000000 1.0
C      1  0.4825660000000  0.4999770000000  0.4657090000000 1.0
C      1  0.5369250000000  0.5007770000000  0.5192720000000 1.0
C      1  0.5181200000000  0.5353140000000  0.5012620000000 1.0
C      1  0.5007460000000  0.5190550000000  0.5371950000000 1.0
C      1  0.4647790000000  0.4992060000000  0.5183600000000 1.0
C      1  0.4651390000000  0.4997170000000  0.4824990000000 1.0
C      1  0.5369160000000  0.4992090000000  0.4820150000000 1.0
C      1  0.4823120000000  0.4647450000000  0.5005730000000 1.0
C      1  0.4807270000000  0.5363900000000  0.4996890000000 1.0
C      1  0.5179370000000  0.4642650000000  0.5008710000000 1.0
C      1  0.4991060000000  0.4815750000000  0.5360610000000 1.0
C      1  0.4995810000000  0.5190490000000  0.4640360000000 1.0
C      1  0.5002160000000  0.4823700000000  0.4661670000000 1.0
C      1  0.5658870000000  0.4751890000000  0.4898770000000 1.0
C      1  0.4783210000000  0.4872830000000  0.5657420000000 1.0
C      1  0.4888740000000  0.5649450000000  0.4757150000000 1.0
C      1  0.4355080000000  0.5223570000000  0.4888960000000 1.0
C      1  0.5665530000000  0.5231000000000  0.5127010000000 1.0
C      1  0.4362370000000  0.4766000000000  0.5117720000000 1.0
C      1  0.5245360000000  0.5099180000000  0.5654490000000 1.0
C      1  0.4758200000000  0.5103640000000  0.4351560000000 1.0
C      1  0.5236070000000  0.4890840000000  0.4368600000000 1.0
C      1  0.5114500000000  0.4355050000000  0.4757370000000 1.0
C      1  0.4867970000000  0.4344940000000  0.5227310000000 1.0
C      1  0.5112620000000  0.5636100000000  0.5237840000000 1.0
C      1  0.4772420000000  0.5649690000000  0.4870490000000 1.0
C      1  0.4898870000000  0.4759170000000  0.5653700000000 1.0
C      1  0.5656250000000  0.4871370000000  0.4784800000000 1.0
C      1  0.5237990000000  0.4354600000000  0.4873230000000 1.0
C      1  0.5232210000000  0.5635520000000  0.5118610000000 1.0
C      1  0.4750240000000  0.4345540000000  0.5113220000000 1.0
C      1  0.5132030000000  0.5216020000000  0.5658710000000 1.0
C      1  0.5117790000000  0.4767600000000  0.4362680000000 1.0
C      1  0.4874210000000  0.5218780000000  0.4350860000000 1.0
C      1  0.4357770000000  0.5095840000000  0.4763190000000 1.0
C      1  0.4363060000000  0.4884160000000  0.5234050000000 1.0
C      1  0.5664110000000  0.5120390000000  0.5236940000000 1.0
C      1  0.4834340000000  0.5563620000000  0.5415830000000 1.0
C      1  0.5461680000000  0.5441980000000  0.4726180000000 1.0
C      1  0.5371930000000  0.4726950000000  0.5504670000000 1.0
C      1  0.5294910000000  0.4530100000000  0.5373470000000 1.0
C      1  0.4740660000000  0.4530680000000  0.4609390000000 1.0
C      1  0.5231520000000  0.5523690000000  0.4608250000000 1.0
C      1  0.4441810000000  0.4584250000000  0.4853120000000 1.0
C      1  0.5504910000000  0.4539210000000  0.5210370000000 1.0
C      1  0.4478550000000  0.5390710000000  0.5236430000000 1.0
C      1  0.4559110000000  0.5277370000000  0.5464740000000 1.0
C      1  0.5412190000000  0.5167360000000  0.4442300000000 1.0
C      1  0.4605680000000  0.4773810000000  0.4503950000000 1.0
C      1  0.5458220000000  0.4700340000000  0.5380000000000 1.0
C      1  0.5400290000000  0.5564560000000  0.4830690000000 1.0
C      1  0.4740300000000  0.5447780000000  0.5484960000000 1.0
C      1  0.4435340000000  0.5171490000000  0.5404030000000 1.0
C      1  0.4534070000000  0.4717850000000  0.4620220000000 1.0
C      1  0.5480970000000  0.5261030000000  0.4557210000000 1.0
C      1  0.4567210000000  0.4513190000000  0.4782330000000 1.0
C      1  0.4597010000000  0.5467580000000  0.5286680000000 1.0
C      1  0.5433030000000  0.4423000000000  0.5128680000000 1.0
C      1  0.5266440000000  0.4621750000000  0.5502770000000 1.0
C      1  0.5283900000000  0.5403690000000  0.4534450000000 1.0
C      1  0.4783640000000  0.4606010000000  0.4491430000000 1.0
C      1  0.5204000000000  0.4208790000000  0.4896970000000 1.0
C      1  0.4218250000000  0.4912470000000  0.5190490000000 1.0
C      1  0.4869660000000  0.5210990000000  0.4195600000000 1.0
C      1  0.4772850000000  0.5805270000000  0.4861680000000 1.0
C      1  0.5190600000000  0.5779330000000  0.5088150000000 1.0
C      1  0.4769940000000  0.4192980000000  0.5107440000000 1.0
C      1  0.5820000000000  0.5107840000000  0.5219180000000 1.0
C      1  0.4209200000000  0.5096900000000  0.4787140000000 1.0
C      1  0.5810100000000  0.4883350000000  0.4800730000000 1.0
C      1  0.5110960000000  0.4801830000000  0.4214650000000 1.0
C      1  0.4904270000000  0.4778290000000  0.5807880000000 1.0
C      1  0.5124720000000  0.5197590000000  0.5813260000000 1.0
C      1  0.4206440000000  0.5199040000000  0.4886290000000 1.0
C      1  0.4864630000000  0.4189540000000  0.5216580000000 1.0
C      1  0.5212850000000  0.4905250000000  0.4218020000000 1.0
C      1  0.5810740000000  0.4781650000000  0.4902860000000 1.0
C      1  0.5820790000000  0.5211470000000  0.5118470000000 1.0
C      1  0.4220460000000  0.4811760000000  0.5085220000000 1.0
C      1  0.5090160000000  0.5781580000000  0.5193470000000 1.0
C      1  0.5098140000000  0.4209850000000  0.4796170000000 1.0
C      1  0.4874990000000  0.5804840000000  0.4762250000000 1.0
C      1  0.4774420000000  0.5103450000000  0.4197940000000 1.0
C      1  0.4801570000000  0.4879300000000  0.5811830000000 1.0
C      1  0.5226170000000  0.5095210000000  0.5808560000000 1.0
C      1  0.5391770000000  0.5086590000000  0.4708800000000 1.0
C      1  0.5085000000000  0.4711050000000  0.5385210000000 1.0
C      1  0.4705830000000  0.5385360000000  0.5100220000000 1.0
C      1  0.4646850000000  0.4860000000000  0.4761450000000 1.0
C      1  0.5386530000000  0.4903380000000  0.5290650000000 1.0
C      1  0.4616620000000  0.5090950000000  0.5279110000000 1.0
C      1  0.4912000000000  0.5298570000000  0.5393790000000 1.0
C      1  0.5096700000000  0.5294210000000  0.4616590000000 1.0
C      1  0.4869120000000  0.4752320000000  0.4648000000000 1.0
C      1  0.5270030000000  0.4609250000000  0.5127240000000 1.0
C      1  0.4748080000000  0.4640250000000  0.4874110000000 1.0
C      1  0.5275000000000  0.5381680000000  0.4910700000000 1.0
C      1  0.5090190000000  0.5390720000000  0.4714970000000 1.0
C      1  0.4700900000000  0.5094870000000  0.5385410000000 1.0
C      1  0.5371950000000  0.4719020000000  0.5129810000000 1.0
C      1  0.4866320000000  0.4645280000000  0.4760140000000 1.0
C      1  0.4911260000000  0.5379450000000  0.5285960000000 1.0
C      1  0.5090580000000  0.4610180000000  0.5293860000000 1.0
C      1  0.5287570000000  0.4911080000000  0.5384090000000 1.0
C      1  0.5285740000000  0.5083960000000  0.4624820000000 1.0
C      1  0.4752060000000  0.4866500000000  0.4648660000000 1.0
C      1  0.4609480000000  0.5286910000000  0.5092670000000 1.0
C      1  0.4646070000000  0.4750550000000  0.4875460000000 1.0
C      1  0.5383950000000  0.5299900000000  0.4909780000000 1.0
C      1  0.4785080000000  0.5005810000000  0.5118210000000 1.0
C      1  0.5006630000000  0.5117570000000  0.4784080000000 1.0
C      1  0.5114630000000  0.4781790000000  0.5014190000000 1.0
C      1  0.5226250000000  0.5003110000000  0.5118850000000 1.0
C      1  0.4787860000000  0.5005120000000  0.4898930000000 1.0
C      1  0.5228230000000  0.5004210000000  0.4896040000000 1.0
C      1  0.5005920000000  0.4896310000000  0.4796040000000 1.0
C      1  0.5002230000000  0.4891420000000  0.5226980000000 1.0
C      1  0.4998920000000  0.5114890000000  0.5230100000000 1.0
C      1  0.4887650000000  0.5225260000000  0.5006760000000 1.0
C      1  0.5112590000000  0.5218200000000  0.5004130000000 1.0
C      1  0.4896140000000  0.4783630000000  0.5011310000000 1.0
C      1  0.5003720000000  0.4778590000000  0.5122190000000 1.0
C      1  0.5116710000000  0.5006290000000  0.4790400000000 1.0
C      1  0.4781180000000  0.5116450000000  0.5007620000000 1.0
C      1  0.4998840000000  0.5219030000000  0.5116600000000 1.0
C      1  0.5006040000000  0.4786300000000  0.4903680000000 1.0
C      1  0.5002550000000  0.5223930000000  0.4892730000000 1.0
C      1  0.4897000000000  0.5006520000000  0.4791650000000 1.0
C      1  0.4889020000000  0.5005750000000  0.5230250000000 1.0
C      1  0.5113410000000  0.5003040000000  0.5226060000000 1.0
C      1  0.5223870000000  0.4890870000000  0.5011760000000 1.0
C      1  0.5228280000000  0.5114440000000  0.5003940000000 1.0
C      1  0.4790830000000  0.4894350000000  0.5008980000000 1.0
C      1  0.4169880000000  0.4792570000000  0.4961410000000 1.0
C      1  0.4759640000000  0.4990880000000  0.4122800000000 1.0
C      1  0.4987620000000  0.4132740000000  0.4773090000000 1.0
C      1  0.5882650000000  0.5232720000000  0.4998390000000 1.0
C      1  0.4120540000000  0.5245020000000  0.4981430000000 1.0
C      1  0.5892270000000  0.4753550000000  0.5008340000000 1.0
C      1  0.5225020000000  0.5028330000000  0.4162920000000 1.0
C      1  0.4778970000000  0.4998360000000  0.5875190000000 1.0
C      1  0.5252670000000  0.4981820000000  0.5879400000000 1.0
C      1  0.4978510000000  0.5887280000000  0.4731270000000 1.0
C      1  0.4965500000000  0.5832200000000  0.5208110000000 1.0
C      1  0.4979510000000  0.4120870000000  0.5242400000000 1.0
C      1  0.4755140000000  0.4120370000000  0.4992530000000 1.0
C      1  0.5003320000000  0.4775200000000  0.4135450000000 1.0
C      1  0.4122980000000  0.5002930000000  0.4739620000000 1.0
C      1  0.5203010000000  0.5829100000000  0.4962740000000 1.0
C      1  0.5217860000000  0.4149940000000  0.5018040000000 1.0
C      1  0.4744370000000  0.5875950000000  0.4974720000000 1.0
C      1  0.4982380000000  0.5240940000000  0.4125900000000 1.0
C      1  0.5018730000000  0.4753660000000  0.5877930000000 1.0
C      1  0.5005940000000  0.5221310000000  0.5877150000000 1.0
C      1  0.5875740000000  0.5001280000000  0.4778220000000 1.0
C      1  0.5874450000000  0.4982680000000  0.5227680000000 1.0
C      1  0.4166800000000  0.5035630000000  0.5210360000000 1.0
C      1  0.5468950000000  0.5203480000000  0.4698910000000 1.0
C      1  0.5153130000000  0.4732410000000  0.5508830000000 1.0
C      1  0.4725870000000  0.5473780000000  0.5208530000000 1.0
C      1  0.4497980000000  0.4819890000000  0.4740810000000 1.0
C      1  0.5438790000000  0.4776560000000  0.5255870000000 1.0
C      1  0.4475700000000  0.5137310000000  0.5263370000000 1.0
C      1  0.4796760000000  0.5306210000000  0.5472780000000 1.0
C      1  0.5204880000000  0.5274830000000  0.4528700000000 1.0
C      1  0.4887790000000  0.4698390000000  0.4508470000000 1.0
C      1  0.5301490000000  0.4470500000000  0.5092530000000 1.0
C      1  0.4687710000000  0.4505260000000  0.4881770000000 1.0
C      1  0.5260360000000  0.5523600000000  0.4864480000000 1.0
C      1  0.5155770000000  0.5523250000000  0.4737750000000 1.0
C      1  0.4694800000000  0.5212960000000  0.5459720000000 1.0
C      1  0.5511950000000  0.4684600000000  0.5136600000000 1.0
C      1  0.4864490000000  0.4510150000000  0.4705560000000 1.0
C      1  0.4858230000000  0.5515650000000  0.5275370000000 1.0
C      1  0.5212780000000  0.4554200000000  0.5255540000000 1.0
C      1  0.5265400000000  0.4843350000000  0.5508910000000 1.0
C      1  0.5270940000000  0.5142050000000  0.4490190000000 1.0
C      1  0.4696390000000  0.4879820000000  0.4511300000000 1.0
C      1  0.4478930000000  0.5262280000000  0.5160260000000 1.0
C      1  0.4485650000000  0.4726420000000  0.4870710000000 1.0
C      1  0.5458330000000  0.5306170000000  0.4791760000000 1.0
C      1  0.5380160000000  0.4460810000000  0.4445380000000 1.0
C      1  0.4421680000000  0.4580460000000  0.5430150000000 1.0
C      1  0.4455290000000  0.5362800000000  0.4450380000000 1.0
C      1  0.4626920000000  0.5534770000000  0.4451560000000 1.0
C      1  0.5422150000000  0.5575680000000  0.5426410000000 1.0
C      1  0.4583870000000  0.4400330000000  0.5436890000000 1.0
C      1  0.5602740000000  0.5412660000000  0.5432830000000 1.0
C      1  0.4466430000000  0.5523150000000  0.4625750000000 1.0
C      1  0.5550920000000  0.4457410000000  0.4616760000000 1.0
C      1  0.5548560000000  0.4636150000000  0.4458700000000 1.0
C      1  0.4590720000000  0.4573200000000  0.5605130000000 1.0
C      1  0.5432640000000  0.5407180000000  0.5603680000000 1.0
C      1  0.4407640000000  0.5408460000000  0.4573760000000 1.0
C      1  0.4470530000000  0.4459650000000  0.5383020000000 1.0
C      1  0.5429980000000  0.4585180000000  0.4404160000000 1.0
C      1  0.5601030000000  0.4580160000000  0.4575330000000 1.0
C      1  0.5553260000000  0.5360690000000  0.5552540000000 1.0
C      1  0.4481080000000  0.4632090000000  0.5543830000000 1.0
C      1  0.5537750000000  0.5520510000000  0.5375250000000 1.0
C      1  0.5429860000000  0.4409070000000  0.4565650000000 1.0
C      1  0.4579080000000  0.5584770000000  0.4572320000000 1.0
C      1  0.4575350000000  0.5415380000000  0.4400060000000 1.0
C      1  0.4635830000000  0.4450410000000  0.5556840000000 1.0
C      1  0.5374240000000  0.5517380000000  0.5542440000000 1.0
C      1  0.5466690000000  0.4822740000000  0.5688280000000 1.0
C      1  0.4754930000000  0.5687780000000  0.5419870000000 1.0
C      1  0.5677070000000  0.5445210000000  0.4827030000000 1.0
C      1  0.4558390000000  0.5176950000000  0.5680900000000 1.0
C      1  0.5422200000000  0.5243960000000  0.4317420000000 1.0
C      1  0.4551580000000  0.4828560000000  0.4301170000000 1.0
C      1  0.5164590000000  0.4326060000000  0.5450240000000 1.0
C      1  0.4841500000000  0.4318010000000  0.4553530000000 1.0
C      1  0.5157860000000  0.5696290000000  0.4518900000000 1.0
C      1  0.4323820000000  0.4573870000000  0.4760720000000 1.0
C      1  0.5704470000000  0.4523530000000  0.5157550000000 1.0
C      1  0.4298150000000  0.5479560000000  0.5158740000000 1.0
C      1  0.4829030000000  0.5451560000000  0.5692680000000 1.0
C      1  0.5669040000000  0.4824540000000  0.5427060000000 1.0
C      1  0.5413800000000  0.5689810000000  0.4753130000000 1.0
C      1  0.5173450000000  0.4536030000000  0.5690340000000 1.0
C      1  0.5164310000000  0.5466480000000  0.4318730000000 1.0
C      1  0.4845470000000  0.4546730000000  0.4305180000000 1.0
C      1  0.4309610000000  0.5248280000000  0.5417770000000 1.0
C      1  0.4321570000000  0.4825590000000  0.4523320000000 1.0
C      1  0.5690880000000  0.5173670000000  0.4551780000000 1.0
C      1  0.4538630000000  0.4304170000000  0.4836600000000 1.0
C      1  0.4529230000000  0.5677010000000  0.5159800000000 1.0
C      1  0.5428470000000  0.4306500000000  0.5221440000000 1.0
C      1  0.5228360000000  0.5160910000000  0.4169840000000 1.0
C      1  0.5108480000000  0.4158510000000  0.5251990000000 1.0
C      1  0.4148300000000  0.5270450000000  0.5110600000000 1.0
C      1  0.4758740000000  0.4859640000000  0.4148400000000 1.0
C      1  0.5256940000000  0.4852040000000  0.5842090000000 1.0
C      1  0.4767240000000  0.5128070000000  0.5838130000000 1.0
C      1  0.4833320000000  0.5830220000000  0.5218090000000 1.0
C      1  0.5108720000000  0.5853080000000  0.4722970000000 1.0
C      1  0.4856450000000  0.4159120000000  0.4760500000000 1.0
C      1  0.5852330000000  0.4740490000000  0.5136280000000 1.0
C      1  0.4176890000000  0.4769780000000  0.4829960000000 1.0
C      1  0.5840230000000  0.5240810000000  0.4870440000000 1.0
C      1  0.5110870000000  0.5259920000000  0.4160820000000 1.0
C      1  0.4168850000000  0.5168290000000  0.5222620000000 1.0
C      1  0.5224470000000  0.4158790000000  0.5150710000000 1.0
C      1  0.4871430000000  0.4759970000000  0.4155560000000 1.0
C      1  0.4876090000000  0.5235850000000  0.5840190000000 1.0
C      1  0.5148760000000  0.4747110000000  0.5841260000000 1.0
C      1  0.5839710000000  0.4852680000000  0.5235540000000 1.0
C      1  0.5840200000000  0.5131240000000  0.4764580000000 1.0
C      1  0.4156070000000  0.4874480000000  0.4721130000000 1.0
C      1  0.4731330000000  0.5838860000000  0.5103460000000 1.0
C      1  0.4747120000000  0.4152290000000  0.4862220000000 1.0
C      1  0.5215910000000  0.5830300000000  0.4830000000000 1.0
C      1  0.4533390000000  0.4904560000000  0.5594550000000 1.0
C      1  0.4897930000000  0.5583160000000  0.4511200000000 1.0
C      1  0.5612850000000  0.4503390000000  0.4883240000000 1.0
C      1  0.5489760000000  0.5086280000000  0.5587540000000 1.0
C      1  0.4514960000000  0.5095230000000  0.4400640000000 1.0
C      1  0.5485780000000  0.4905460000000  0.4437230000000 1.0
C      1  0.5107790000000  0.4410360000000  0.4510760000000 1.0
C      1  0.4905660000000  0.4412860000000  0.5482540000000 1.0
C      1  0.5098800000000  0.5565070000000  0.5487920000000 1.0
C      1  0.4412160000000  0.5476680000000  0.4897100000000 1.0
C      1  0.5592710000000  0.5473450000000  0.5099550000000 1.0
C      1  0.4416300000000  0.4512480000000  0.5110730000000 1.0
C      1  0.4907450000000  0.4515940000000  0.5589390000000 1.0
C      1  0.5597830000000  0.4902040000000  0.4533480000000 1.0
C      1  0.4518830000000  0.5579960000000  0.4897770000000 1.0
C      1  0.5103010000000  0.5467480000000  0.5599710000000 1.0
C      1  0.5110540000000  0.4513990000000  0.4403520000000 1.0
C      1  0.4900470000000  0.5474680000000  0.4410190000000 1.0
C      1  0.4412920000000  0.5088690000000  0.4507830000000 1.0
C      1  0.4436150000000  0.4908070000000  0.5482800000000 1.0
C      1  0.5591980000000  0.5088290000000  0.5480180000000 1.0
C      1  0.5501610000000  0.4404630000000  0.4877420000000 1.0
C      1  0.5478940000000  0.5567710000000  0.5095430000000 1.0
C      1  0.4509650000000  0.4397300000000  0.5112860000000 1.0
C      1  0.5145670000000  0.5245450000000  0.5357440000000 1.0
C      1  0.5248300000000  0.5343720000000  0.5146210000000 1.0
C      1  0.5357960000000  0.5141810000000  0.5251010000000 1.0
C      1  0.4857940000000  0.4753280000000  0.5350660000000 1.0
C      1  0.5136580000000  0.4752390000000  0.4661890000000 1.0
C      1  0.4857770000000  0.5242360000000  0.4652520000000 1.0
C      1  0.4754000000000  0.4645570000000  0.5139570000000 1.0
C      1  0.5246270000000  0.4647680000000  0.4872370000000 1.0
C      1  0.4751620000000  0.5346500000000  0.4859390000000 1.0
C      1  0.4656820000000  0.4856460000000  0.5244910000000 1.0
C      1  0.5351240000000  0.4854620000000  0.4767960000000 1.0
C      1  0.4652040000000  0.5130810000000  0.4754520000000 1.0
C      1  0.5251060000000  0.5142190000000  0.5353750000000 1.0
C      1  0.5358430000000  0.5245670000000  0.5145730000000 1.0
C      1  0.5144110000000  0.5344200000000  0.5249780000000 1.0
C      1  0.4755070000000  0.4858230000000  0.5353630000000 1.0
C      1  0.4755800000000  0.5132480000000  0.4652600000000 1.0
C      1  0.5243800000000  0.4855090000000  0.4666100000000 1.0
C      1  0.4654920000000  0.4751960000000  0.5138720000000 1.0
C      1  0.4651670000000  0.5239500000000  0.4857460000000 1.0
C      1  0.5352590000000  0.4749360000000  0.4875410000000 1.0
C      1  0.4856460000000  0.4646700000000  0.5247650000000 1.0
C      1  0.4856570000000  0.5346390000000  0.4756080000000 1.0
C      1  0.5138040000000  0.4649280000000  0.4765400000000 1.0
C      1  0.5447530000000  0.4664370000000  0.4784490000000 1.0
C      1  0.4670120000000  0.4769640000000  0.5448970000000 1.0
C      1  0.4772570000000  0.5438360000000  0.4663520000000 1.0
C      1  0.4557040000000  0.5326830000000  0.4770320000000 1.0
C      1  0.5452040000000  0.5332550000000  0.5234600000000 1.0
C      1  0.4559670000000  0.4664300000000  0.5227590000000 1.0
C      1  0.5343170000000  0.5223850000000  0.5449410000000 1.0
C      1  0.4665500000000  0.5218520000000  0.4556210000000 1.0
C      1  0.5334980000000  0.4772480000000  0.4569870000000 1.0
C      1  0.5226700000000  0.4558130000000  0.4672770000000 1.0
C      1  0.4770030000000  0.4554320000000  0.5338000000000 1.0
C      1  0.5230330000000  0.5437250000000  0.5340410000000 1.0
C      1  0.4664340000000  0.5438310000000  0.4770390000000 1.0
C      1  0.4775160000000  0.4662690000000  0.5447130000000 1.0
C      1  0.5445810000000  0.4771130000000  0.4678690000000 1.0
C      1  0.5336720000000  0.4556860000000  0.4779210000000 1.0
C      1  0.5338130000000  0.5438030000000  0.5232080000000 1.0
C      1  0.4664370000000  0.4553050000000  0.5230000000000 1.0
C      1  0.5236060000000  0.5329670000000  0.5452210000000 1.0
C      1  0.5225720000000  0.4666980000000  0.4565460000000 1.0
C      1  0.4770800000000  0.5328290000000  0.4556410000000 1.0
C      1  0.4557880000000  0.5216080000000  0.4664100000000 1.0
C      1  0.4562750000000  0.4771890000000  0.5336160000000 1.0
C      1  0.5452150000000  0.5226310000000  0.5340600000000 1.0
C      1  0.5101710000000  0.4513890000000  0.4999980000000 1.0
C      1  0.4523590000000  0.4996820000000  0.5102650000000 1.0
C      1  0.4998690000000  0.5104170000000  0.4519210000000 1.0
C      1  0.4888580000000  0.5487590000000  0.5001920000000 1.0
C      1  0.5098660000000  0.5477960000000  0.5005050000000 1.0
C      1  0.4888460000000  0.4513910000000  0.4998610000000 1.0
C      1  0.5490690000000  0.4998510000000  0.5110780000000 1.0
C      1  0.4519890000000  0.4994510000000  0.4893770000000 1.0
C      1  0.5489260000000  0.4992580000000  0.4903280000000 1.0
C      1  0.4999310000000  0.4892010000000  0.4528310000000 1.0
C      1  0.5000260000000  0.4896300000000  0.5484410000000 1.0
C      1  0.5001170000000  0.5107390000000  0.5491100000000 1.0
C      1  0.4516140000000  0.5101620000000  0.4998850000000 1.0
C      1  0.4996630000000  0.4505430000000  0.5106680000000 1.0
C      1  0.5101960000000  0.4996470000000  0.4528760000000 1.0
C      1  0.5485800000000  0.4885030000000  0.5012610000000 1.0
C      1  0.5490140000000  0.5106500000000  0.5002320000000 1.0
C      1  0.4527230000000  0.4893890000000  0.5002390000000 1.0
C      1  0.4996160000000  0.5478350000000  0.5106370000000 1.0
C      1  0.4995890000000  0.4516260000000  0.4895320000000 1.0
C      1  0.4996560000000  0.5483920000000  0.4897620000000 1.0
C      1  0.4893610000000  0.4995800000000  0.4525090000000 1.0
C      1  0.4892620000000  0.5002330000000  0.5489560000000 1.0
C      1  0.5105650000000  0.4999450000000  0.5485260000000 1.0
C      1  0.4366260000000  0.4671080000000  0.5339080000000 1.0
C      1  0.4670110000000  0.5322350000000  0.4355310000000 1.0
C      1  0.5337210000000  0.4361780000000  0.4659710000000 1.0
C      1  0.4682750000000  0.4668010000000  0.5651980000000 1.0
C      1  0.4671140000000  0.5636080000000  0.4665710000000 1.0
C      1  0.5334970000000  0.4679280000000  0.4363900000000 1.0
C      1  0.5654270000000  0.5324480000000  0.5336920000000 1.0
C      1  0.4358750000000  0.5316490000000  0.4668350000000 1.0
C      1  0.5647030000000  0.4669600000000  0.4674060000000 1.0
C      1  0.5339080000000  0.5315020000000  0.5653230000000 1.0
C      1  0.5331610000000  0.5632990000000  0.5335970000000 1.0
C      1  0.4671410000000  0.4352690000000  0.5338390000000 1.0
C      1  0.4604030000000  0.5422670000000  0.5425370000000 1.0
C      1  0.5429120000000  0.4566630000000  0.5334010000000 1.0
C      1  0.4615370000000  0.4596610000000  0.4673600000000 1.0
C      1  0.5422130000000  0.5397070000000  0.4581660000000 1.0
END
