TITL C-3151192-8964-8 27.4621491225203 1000000 -3620.41650523403 0 0 520 (C1) n - 1
REM
REM in /scratch/bkarasulu/Only-C240/Try4-Only-SYMOP24
REM
REM
REM
REM
REM
REM ./C.cell (018bbde761a0794ceee8127bb1f748ef)
REM
REM compiler GCC version 9.2.1 20190827 (Red Hat 9.2.1-1)
REM options -cpp -mtune=generic -march=x86-64 -g -O0 -fpre-include=/usr/include/finclude/math-vector-fortran.h
REM seed -1178989010 -1083744958 2129874396 151332233 -524023200 -1826145283 -219488303 748998371 1554636059 -815196271 -1339148280 -949315440 -198624405 -827403156 1559070224 453502572 665240537 -359789576 -1214478112 1624047271 195733264 -1475080843 197987118 -1425929905 1164344653 -525547177 -1684413339 -236676680 -1116187629 -1854807372 139484288 1373630534 -484713662
REM
CELL 1.54180  100.00000  100.00000  100.00000   90.00000   90.00000   90.00000
LATT -1
SFAC C  
C      1  0.5425830000000  0.5625340000000  0.5508990000000 1.0
C      1  0.5520180000000  0.5412270000000  0.5602620000000 1.0
C      1  0.5619460000000  0.5525280000000  0.5398700000000 1.0
C      1  0.4592210000000  0.4391130000000  0.5518440000000 1.0
C      1  0.4599400000000  0.5606380000000  0.4503190000000 1.0
C      1  0.5391930000000  0.4382400000000  0.4481180000000 1.0
C      1  0.4488220000000  0.4584300000000  0.5617790000000 1.0
C      1  0.4498500000000  0.5401150000000  0.4402420000000 1.0
C      1  0.5506550000000  0.4575500000000  0.4383800000000 1.0
C      1  0.4375750000000  0.4477420000000  0.5425010000000 1.0
C      1  0.4390190000000  0.5507990000000  0.4600250000000 1.0
C      1  0.5596450000000  0.4476300000000  0.4591690000000 1.0
C      1  0.5619210000000  0.5421300000000  0.5498760000000 1.0
C      1  0.5425290000000  0.5520610000000  0.5608340000000 1.0
C      1  0.5520280000000  0.5628800000000  0.5400940000000 1.0
C      1  0.4376010000000  0.4579080000000  0.5527250000000 1.0
C      1  0.5608210000000  0.4572050000000  0.4485310000000 1.0
C      1  0.4395010000000  0.5401180000000  0.4502310000000 1.0
C      1  0.4595190000000  0.4491450000000  0.5619570000000 1.0
C      1  0.5395030000000  0.4485280000000  0.4381370000000 1.0
C      1  0.4600840000000  0.5503760000000  0.4402630000000 1.0
C      1  0.4482840000000  0.4380910000000  0.5423860000000 1.0
C      1  0.5492890000000  0.4380700000000  0.4584060000000 1.0
C      1  0.4492300000000  0.5609710000000  0.4601090000000 1.0
C      1  0.5111150000000  0.4998350000000  0.4348750000000 1.0
C      1  0.4323170000000  0.5105990000000  0.5002040000000 1.0
C      1  0.4980560000000  0.4297770000000  0.5106570000000 1.0
C      1  0.4894380000000  0.5001190000000  0.4346010000000 1.0
C      1  0.4884680000000  0.5005010000000  0.5666150000000 1.0
C      1  0.5100400000000  0.5007390000000  0.5665120000000 1.0
C      1  0.5698360000000  0.4889000000000  0.4983470000000 1.0
C      1  0.5685260000000  0.5109840000000  0.4995950000000 1.0
C      1  0.4327880000000  0.4890010000000  0.5009220000000 1.0
C      1  0.5004560000000  0.5671010000000  0.5109380000000 1.0
C      1  0.4991220000000  0.4312380000000  0.4885760000000 1.0
C      1  0.5003610000000  0.5668180000000  0.4895600000000 1.0
C      1  0.5002850000000  0.5107660000000  0.4347040000000 1.0
C      1  0.5097780000000  0.4286600000000  0.4993890000000 1.0
C      1  0.4331770000000  0.4999990000000  0.5113200000000 1.0
C      1  0.5002940000000  0.4891370000000  0.4346440000000 1.0
C      1  0.4990080000000  0.4897400000000  0.5665890000000 1.0
C      1  0.4993570000000  0.5114320000000  0.5665070000000 1.0
C      1  0.4895270000000  0.5674950000000  0.5000800000000 1.0
C      1  0.5113300000000  0.5674690000000  0.5004180000000 1.0
C      1  0.4881800000000  0.4310130000000  0.4994340000000 1.0
C      1  0.5699880000000  0.5001660000000  0.5099940000000 1.0
C      1  0.4332510000000  0.4996750000000  0.4898130000000 1.0
C      1  0.5688890000000  0.5001580000000  0.4886210000000 1.0
C      1  0.5177310000000  0.5345700000000  0.4931530000000 1.0
C      1  0.4919460000000  0.5150940000000  0.5324070000000 1.0
C      1  0.5360510000000  0.4949280000000  0.5168300000000 1.0
C      1  0.4861950000000  0.4646370000000  0.4939250000000 1.0
C      1  0.4855990000000  0.5340920000000  0.5079250000000 1.0
C      1  0.5177170000000  0.4601480000000  0.5089470000000 1.0
C      1  0.4991670000000  0.4915820000000  0.5318270000000 1.0
C      1  0.5069370000000  0.5167740000000  0.4684740000000 1.0
C      1  0.4928730000000  0.4822470000000  0.4678740000000 1.0
C      1  0.4674690000000  0.5022810000000  0.5074750000000 1.0
C      1  0.4675430000000  0.4977500000000  0.4938000000000 1.0
C      1  0.5352610000000  0.5062060000000  0.4861620000000 1.0
C      1  0.5336350000000  0.5115380000000  0.4980110000000 1.0
C      1  0.5124760000000  0.4941890000000  0.5327610000000 1.0
C      1  0.4992300000000  0.5325570000000  0.5067140000000 1.0
C      1  0.4663070000000  0.4839410000000  0.4936850000000 1.0
C      1  0.5359140000000  0.4846050000000  0.5072060000000 1.0
C      1  0.4654760000000  0.5159730000000  0.5077110000000 1.0
C      1  0.4892430000000  0.5015130000000  0.5317440000000 1.0
C      1  0.5162820000000  0.5064160000000  0.4685410000000 1.0
C      1  0.4831110000000  0.4923490000000  0.4679230000000 1.0
C      1  0.5067120000000  0.4643520000000  0.5164390000000 1.0
C      1  0.4985880000000  0.4659970000000  0.4899590000000 1.0
C      1  0.5037400000000  0.5329940000000  0.4931230000000 1.0
C      1  0.4631760000000  0.4922710000000  0.5794840000000 1.0
C      1  0.5856540000000  0.4646130000000  0.4777720000000 1.0
C      1  0.4922130000000  0.5813420000000  0.4635560000000 1.0
C      1  0.5352020000000  0.5089080000000  0.5802450000000 1.0
C      1  0.5366460000000  0.4910520000000  0.4221880000000 1.0
C      1  0.4641580000000  0.5083140000000  0.4199010000000 1.0
C      1  0.4178130000000  0.5356060000000  0.4918230000000 1.0
C      1  0.4203320000000  0.4634750000000  0.5097310000000 1.0
C      1  0.5816830000000  0.5380870000000  0.5071460000000 1.0
C      1  0.5055630000000  0.4183360000000  0.4597980000000 1.0
C      1  0.5093910000000  0.5797490000000  0.5368260000000 1.0
C      1  0.4774900000000  0.4135640000000  0.5346320000000 1.0
C      1  0.4912370000000  0.4646090000000  0.5816310000000 1.0
C      1  0.4640070000000  0.5823770000000  0.4917760000000 1.0
C      1  0.5791210000000  0.4933010000000  0.4616810000000 1.0
C      1  0.5085790000000  0.5374580000000  0.5786330000000 1.0
C      1  0.4926170000000  0.5363730000000  0.4203460000000 1.0
C      1  0.5079690000000  0.4640030000000  0.4192730000000 1.0
C      1  0.5342440000000  0.4124380000000  0.4841070000000 1.0
C      1  0.4611110000000  0.4207690000000  0.5059530000000 1.0
C      1  0.5364140000000  0.5820900000000  0.5081560000000 1.0
C      1  0.4188970000000  0.5078320000000  0.4637490000000 1.0
C      1  0.5833760000000  0.5122360000000  0.5361600000000 1.0
C      1  0.4206570000000  0.4908950000000  0.5374760000000 1.0
C      1  0.5837250000000  0.5139160000000  0.4759030000000 1.0
C      1  0.4779110000000  0.5849910000000  0.5127890000000 1.0
C      1  0.5118880000000  0.4785330000000  0.5842970000000 1.0
C      1  0.4163980000000  0.4859540000000  0.4781390000000 1.0
C      1  0.4160550000000  0.5126400000000  0.5234020000000 1.0
C      1  0.5866830000000  0.4911890000000  0.5258390000000 1.0
C      1  0.5235750000000  0.4081730000000  0.5053030000000 1.0
C      1  0.5228060000000  0.5844930000000  0.4878100000000 1.0
C      1  0.4749560000000  0.4165040000000  0.4855390000000 1.0
C      1  0.4867000000000  0.5237790000000  0.5833640000000 1.0
C      1  0.4876100000000  0.4778200000000  0.4171900000000 1.0
C      1  0.5134930000000  0.5224620000000  0.4180920000000 1.0
C      1  0.5132400000000  0.5840360000000  0.4775340000000 1.0
C      1  0.5903010000000  0.4794470000000  0.5197780000000 1.0
C      1  0.4767190000000  0.5138030000000  0.5830930000000 1.0
C      1  0.4843690000000  0.4165720000000  0.4750930000000 1.0
C      1  0.5183860000000  0.4080920000000  0.5180310000000 1.0
C      1  0.4876910000000  0.5845980000000  0.5229880000000 1.0
C      1  0.4153180000000  0.5221940000000  0.5129860000000 1.0
C      1  0.5838320000000  0.5238480000000  0.4859640000000 1.0
C      1  0.4155730000000  0.4769370000000  0.4889770000000 1.0
C      1  0.5220020000000  0.4884570000000  0.5839070000000 1.0
C      1  0.4777080000000  0.4876380000000  0.4173510000000 1.0
C      1  0.5233200000000  0.5125480000000  0.4182730000000 1.0
C      1  0.5050290000000  0.5558890000000  0.4550170000000 1.0
C      1  0.4535790000000  0.5056950000000  0.5556000000000 1.0
C      1  0.5565440000000  0.4534530000000  0.5085000000000 1.0
C      1  0.4954630000000  0.4443760000000  0.4539950000000 1.0
C      1  0.4940110000000  0.5555490000000  0.5450860000000 1.0
C      1  0.5061930000000  0.4435630000000  0.5466790000000 1.0
C      1  0.5451950000000  0.4937090000000  0.5538270000000 1.0
C      1  0.5457580000000  0.5050040000000  0.4453510000000 1.0
C      1  0.4540060000000  0.4951380000000  0.4448310000000 1.0
C      1  0.4429030000000  0.5473340000000  0.5060270000000 1.0
C      1  0.4431780000000  0.4537170000000  0.4940270000000 1.0
C      1  0.5565660000000  0.5468830000000  0.4949480000000 1.0
C      1  0.5557310000000  0.5052420000000  0.4546980000000 1.0
C      1  0.5054680000000  0.4541570000000  0.5561880000000 1.0
C      1  0.4529540000000  0.5571970000000  0.5058940000000 1.0
C      1  0.4444500000000  0.4950080000000  0.4550750000000 1.0
C      1  0.5587570000000  0.4984070000000  0.5495870000000 1.0
C      1  0.4441840000000  0.5056130000000  0.5455250000000 1.0
C      1  0.4936520000000  0.5458860000000  0.5549200000000 1.0
C      1  0.5052460000000  0.5460280000000  0.4451310000000 1.0
C      1  0.4955750000000  0.4540380000000  0.4440400000000 1.0
C      1  0.5468560000000  0.4424490000000  0.5076310000000 1.0
C      1  0.4533780000000  0.4444650000000  0.4935190000000 1.0
C      1  0.5474320000000  0.5574340000000  0.4950940000000 1.0
C      1  0.5041180000000  0.5349760000000  0.5530220000000 1.0
C      1  0.5567350000000  0.5065750000000  0.5366680000000 1.0
C      1  0.5368440000000  0.5557640000000  0.5059330000000 1.0
C      1  0.4943330000000  0.4643010000000  0.5546920000000 1.0
C      1  0.4946760000000  0.5351890000000  0.4469270000000 1.0
C      1  0.5061000000000  0.4646450000000  0.4464550000000 1.0
C      1  0.4463130000000  0.4953230000000  0.5341780000000 1.0
C      1  0.4458980000000  0.5054780000000  0.4662080000000 1.0
C      1  0.5545540000000  0.4945820000000  0.4659840000000 1.0
C      1  0.4645880000000  0.4453440000000  0.5044730000000 1.0
C      1  0.4637960000000  0.5556450000000  0.4951820000000 1.0
C      1  0.5377800000000  0.4411460000000  0.4954380000000 1.0
C      1  0.5350160000000  0.5055100000000  0.5537660000000 1.0
C      1  0.5044700000000  0.5535860000000  0.5340470000000 1.0
C      1  0.5556610000000  0.5359030000000  0.5058410000000 1.0
C      1  0.4640260000000  0.4948220000000  0.5539230000000 1.0
C      1  0.5346470000000  0.4946240000000  0.4479470000000 1.0
C      1  0.4649110000000  0.5055610000000  0.4468310000000 1.0
C      1  0.4946480000000  0.4427220000000  0.5364250000000 1.0
C      1  0.5060350000000  0.4447790000000  0.4653290000000 1.0
C      1  0.4946060000000  0.5542930000000  0.4660980000000 1.0
C      1  0.4455300000000  0.4641580000000  0.5048360000000 1.0
C      1  0.5575380000000  0.4624670000000  0.4957330000000 1.0
C      1  0.4443430000000  0.5366650000000  0.4951750000000 1.0
C      1  0.5346440000000  0.4852070000000  0.5286230000000 1.0
C      1  0.5286920000000  0.5394490000000  0.4827480000000 1.0
C      1  0.4809530000000  0.5250900000000  0.5326220000000 1.0
C      1  0.4563420000000  0.5238990000000  0.5307480000000 1.0
C      1  0.4589220000000  0.4779000000000  0.4697640000000 1.0
C      1  0.5387190000000  0.5163800000000  0.4742830000000 1.0
C      1  0.4747650000000  0.4620090000000  0.4837630000000 1.0
C      1  0.4773870000000  0.5335710000000  0.5206910000000 1.0
C      1  0.5276960000000  0.4627780000000  0.5204100000000 1.0
C      1  0.5243240000000  0.4761800000000  0.5464550000000 1.0
C      1  0.5168000000000  0.5280790000000  0.4630290000000 1.0
C      1  0.4834140000000  0.4714740000000  0.4618400000000 1.0
C      1  0.4737610000000  0.5476350000000  0.5252020000000 1.0
C      1  0.5420360000000  0.5311740000000  0.4784440000000 1.0
C      1  0.5206290000000  0.4818340000000  0.5331570000000 1.0
C      1  0.5155460000000  0.4687860000000  0.5274020000000 1.0
C      1  0.4786680000000  0.4584410000000  0.4688750000000 1.0
C      1  0.5218200000000  0.5419310000000  0.4689380000000 1.0
C      1  0.4658640000000  0.4736380000000  0.4831890000000 1.0
C      1  0.5348650000000  0.4750650000000  0.5177060000000 1.0
C      1  0.4656220000000  0.5251540000000  0.5188830000000 1.0
C      1  0.4692970000000  0.5239970000000  0.5427720000000 1.0
C      1  0.5276480000000  0.5159050000000  0.4637290000000 1.0
C      1  0.4718180000000  0.4831160000000  0.4621770000000 1.0
C      1  0.5850480000000  0.5145000000000  0.5217870000000 1.0
C      1  0.5227780000000  0.5844450000000  0.5126720000000 1.0
C      1  0.5122340000000  0.5241260000000  0.5827670000000 1.0
C      1  0.4169840000000  0.4868880000000  0.5241480000000 1.0
C      1  0.4160950000000  0.5117880000000  0.4775070000000 1.0
C      1  0.5841930000000  0.4893310000000  0.4743740000000 1.0
C      1  0.4738240000000  0.4157290000000  0.5099030000000 1.0
C      1  0.4778980000000  0.5844680000000  0.4876360000000 1.0
C      1  0.5195280000000  0.4143260000000  0.4828640000000 1.0
C      1  0.4868500000000  0.4783930000000  0.5836940000000 1.0
C      1  0.4882600000000  0.5227060000000  0.4175120000000 1.0
C      1  0.5126500000000  0.4777340000000  0.4171640000000 1.0
C      1  0.5132610000000  0.5835480000000  0.5234450000000 1.0
C      1  0.5843290000000  0.5243750000000  0.5113420000000 1.0
C      1  0.5218800000000  0.5134260000000  0.5833220000000 1.0
C      1  0.4822600000000  0.4145540000000  0.5215580000000 1.0
C      1  0.5095160000000  0.4155430000000  0.4733700000000 1.0
C      1  0.4879340000000  0.5838100000000  0.4773260000000 1.0
C      1  0.4166950000000  0.4768060000000  0.5138930000000 1.0
C      1  0.5851740000000  0.4776760000000  0.4827640000000 1.0
C      1  0.4152100000000  0.5217780000000  0.4878930000000 1.0
C      1  0.4763960000000  0.4882370000000  0.5832540000000 1.0
C      1  0.5233850000000  0.4872360000000  0.4179960000000 1.0
C      1  0.4779750000000  0.5126390000000  0.4173550000000 1.0
C      1  0.4657620000000  0.4930970000000  0.4232690000000 1.0
C      1  0.4217100000000  0.4648320000000  0.4941470000000 1.0
C      1  0.4904750000000  0.4222740000000  0.4630560000000 1.0
C      1  0.5348370000000  0.5064590000000  0.4247260000000 1.0
C      1  0.5344020000000  0.4936810000000  0.5779490000000 1.0
C      1  0.4647810000000  0.5077970000000  0.5771200000000 1.0
C      1  0.5781640000000  0.5358400000000  0.4917410000000 1.0
C      1  0.5818000000000  0.4750450000000  0.5097270000000 1.0
C      1  0.4205430000000  0.5346530000000  0.5075860000000 1.0
C      1  0.5077320000000  0.5780020000000  0.4655810000000 1.0
C      1  0.5095380000000  0.4170270000000  0.5236990000000 1.0
C      1  0.4936830000000  0.5780620000000  0.5348440000000 1.0
C      1  0.4928950000000  0.4657490000000  0.4228310000000 1.0
C      1  0.4633120000000  0.4234860000000  0.4906630000000 1.0
C      1  0.4225640000000  0.4919490000000  0.4662570000000 1.0
C      1  0.5079680000000  0.5343870000000  0.4239770000000 1.0
C      1  0.4927770000000  0.5357250000000  0.5770950000000 1.0
C      1  0.5066810000000  0.4662020000000  0.5787200000000 1.0
C      1  0.5349830000000  0.5787130000000  0.4927460000000 1.0
C      1  0.4654890000000  0.5796410000000  0.5073320000000 1.0
C      1  0.5352490000000  0.4080610000000  0.4976730000000 1.0
C      1  0.5767570000000  0.5086500000000  0.4641550000000 1.0
C      1  0.4224710000000  0.5067140000000  0.5352230000000 1.0
C      1  0.5802860000000  0.4970420000000  0.5375920000000 1.0
C      1  0.4813580000000  0.4179240000000  0.4982380000000 1.0
C      1  0.5002400000000  0.4834670000000  0.4209610000000 1.0
C      1  0.4202520000000  0.4990900000000  0.4828580000000 1.0
C      1  0.5166620000000  0.5813340000000  0.5003220000000 1.0
C      1  0.5145510000000  0.4154700000000  0.4961610000000 1.0
C      1  0.4836780000000  0.5811330000000  0.5002370000000 1.0
C      1  0.5006970000000  0.5168630000000  0.4212750000000 1.0
C      1  0.4993410000000  0.4840840000000  0.5803130000000 1.0
C      1  0.4993450000000  0.5182540000000  0.5798670000000 1.0
C      1  0.5819450000000  0.5011120000000  0.4817840000000 1.0
C      1  0.5830100000000  0.5016130000000  0.5164040000000 1.0
C      1  0.4200420000000  0.4998430000000  0.5183960000000 1.0
C      1  0.4189550000000  0.4832070000000  0.5012690000000 1.0
C      1  0.4835330000000  0.5001290000000  0.4210780000000 1.0
C      1  0.4974760000000  0.4191440000000  0.4800840000000 1.0
C      1  0.5812880000000  0.5182500000000  0.4988940000000 1.0
C      1  0.4184620000000  0.5159400000000  0.5004310000000 1.0
C      1  0.5818450000000  0.4806440000000  0.4965940000000 1.0
C      1  0.5176050000000  0.4999330000000  0.4215230000000 1.0
C      1  0.4823210000000  0.5009940000000  0.5800910000000 1.0
C      1  0.5159770000000  0.5008080000000  0.5801950000000 1.0
C      1  0.5005090000000  0.5799650000000  0.4828470000000 1.0
C      1  0.5003020000000  0.5803840000000  0.5178430000000 1.0
C      1  0.4961150000000  0.4178780000000  0.5187570000000 1.0
C      1  0.4786670000000  0.5567430000000  0.5011290000000 1.0
C      1  0.5002060000000  0.4790630000000  0.5556590000000 1.0
C      1  0.5567690000000  0.5004900000000  0.4801430000000 1.0
C      1  0.5221070000000  0.4381270000000  0.5009860000000 1.0
C      1  0.5222320000000  0.5568210000000  0.4996500000000 1.0
C      1  0.4792480000000  0.4431370000000  0.4991130000000 1.0
C      1  0.4985320000000  0.5205980000000  0.5549520000000 1.0
C      1  0.4996200000000  0.4791550000000  0.4458040000000 1.0
C      1  0.5009470000000  0.5205570000000  0.4460410000000 1.0
C      1  0.4453580000000  0.4990040000000  0.4807180000000 1.0
C      1  0.4452800000000  0.5015680000000  0.5200880000000 1.0
C      1  0.5594700000000  0.4994730000000  0.5211240000000 1.0
C      1  0.5594800000000  0.4778140000000  0.5002130000000 1.0
C      1  0.4784460000000  0.5011610000000  0.5551180000000 1.0
C      1  0.5010280000000  0.5549210000000  0.4805670000000 1.0
C      1  0.4426630000000  0.5215770000000  0.5008820000000 1.0
C      1  0.5566280000000  0.5210910000000  0.4995330000000 1.0
C      1  0.4436000000000  0.4786250000000  0.4994220000000 1.0
C      1  0.5201080000000  0.5001660000000  0.5553940000000 1.0
C      1  0.4795940000000  0.4992390000000  0.4457850000000 1.0
C      1  0.5203420000000  0.5006270000000  0.4466290000000 1.0
C      1  0.4994650000000  0.4435700000000  0.4796090000000 1.0
C      1  0.5004050000000  0.4400850000000  0.5215650000000 1.0
C      1  0.4987240000000  0.5552390000000  0.5197860000000 1.0
C      1  0.5636830000000  0.5156440000000  0.4618100000000 1.0
C      1  0.4609150000000  0.5668690000000  0.5149090000000 1.0
C      1  0.5148680000000  0.4619990000000  0.5659980000000 1.0
C      1  0.4356760000000  0.4853570000000  0.4624010000000 1.0
C      1  0.4345650000000  0.5148220000000  0.5386010000000 1.0
C      1  0.5689620000000  0.4902340000000  0.5443850000000 1.0
C      1  0.5385490000000  0.4373060000000  0.5184010000000 1.0
C      1  0.5392150000000  0.5661500000000  0.4849200000000 1.0
C      1  0.4611130000000  0.4367100000000  0.4832780000000 1.0
C      1  0.4846760000000  0.5386850000000  0.5646710000000 1.0
C      1  0.4857760000000  0.4617330000000  0.4351910000000 1.0
C      1  0.5150570000000  0.5383400000000  0.4364720000000 1.0
C      1  0.5145310000000  0.5650080000000  0.4623190000000 1.0
C      1  0.5609190000000  0.4618130000000  0.5195110000000 1.0
C      1  0.4607970000000  0.5152250000000  0.5649270000000 1.0
C      1  0.4852160000000  0.4357050000000  0.4606640000000 1.0
C      1  0.5170460000000  0.4365070000000  0.5400940000000 1.0
C      1  0.4852840000000  0.5656820000000  0.5380130000000 1.0
C      1  0.4334890000000  0.5391940000000  0.5151680000000 1.0
C      1  0.5652990000000  0.5394310000000  0.4851580000000 1.0
C      1  0.4336970000000  0.4615490000000  0.4847420000000 1.0
C      1  0.5378990000000  0.4860850000000  0.5652630000000 1.0
C      1  0.4616540000000  0.4857330000000  0.4355260000000 1.0
C      1  0.5383180000000  0.5144160000000  0.4366660000000 1.0
C      1  0.4721470000000  0.4329290000000  0.5482590000000 1.0
C      1  0.5535800000000  0.4718520000000  0.4353640000000 1.0
C      1  0.4325390000000  0.5475990000000  0.4735680000000 1.0
C      1  0.5282070000000  0.5656090000000  0.5535920000000 1.0
C      1  0.5255700000000  0.4323630000000  0.4521110000000 1.0
C      1  0.4735330000000  0.5665420000000  0.4542520000000 1.0
C      1  0.4536020000000  0.5265230000000  0.4344500000000 1.0
C      1  0.4473070000000  0.4733580000000  0.5638110000000 1.0
C      1  0.5490800000000  0.5281560000000  0.5656580000000 1.0
C      1  0.5660640000000  0.4502770000000  0.4722890000000 1.0
C      1  0.5676770000000  0.5487110000000  0.5261370000000 1.0
C      1  0.4344840000000  0.4457120000000  0.5281130000000 1.0
C      1  0.4347710000000  0.4723840000000  0.5540860000000 1.0
C      1  0.4737970000000  0.5466900000000  0.4345110000000 1.0
C      1  0.5465280000000  0.4311010000000  0.4714600000000 1.0
C      1  0.5680970000000  0.5289530000000  0.5464930000000 1.0
C      1  0.4336560000000  0.5264680000000  0.4541850000000 1.0
C      1  0.5646180000000  0.4717140000000  0.4461330000000 1.0
C      1  0.5262360000000  0.4535570000000  0.4330350000000 1.0
C      1  0.4731120000000  0.4531710000000  0.5671920000000 1.0
C      1  0.5281310000000  0.5544400000000  0.5642220000000 1.0
C      1  0.4523640000000  0.5673440000000  0.4736980000000 1.0
C      1  0.5476620000000  0.5684310000000  0.5267690000000 1.0
C      1  0.4456310000000  0.4346300000000  0.5277490000000 1.0
C      1  0.4893500000000  0.4684120000000  0.5405760000000 1.0
C      1  0.5413300000000  0.4886410000000  0.4712790000000 1.0
C      1  0.4685710000000  0.5416120000000  0.4909410000000 1.0
C      1  0.5101090000000  0.5303550000000  0.5396830000000 1.0
C      1  0.5111180000000  0.4687560000000  0.4609580000000 1.0
C      1  0.4896600000000  0.5302680000000  0.4610300000000 1.0
C      1  0.4598110000000  0.5104600000000  0.4714210000000 1.0
C      1  0.4595690000000  0.4892210000000  0.5296360000000 1.0
C      1  0.5426360000000  0.5108270000000  0.5313840000000 1.0
C      1  0.5325750000000  0.4562840000000  0.4911820000000 1.0
C      1  0.5321640000000  0.5415750000000  0.5108450000000 1.0
C      1  0.4697260000000  0.4584650000000  0.5105740000000 1.0
C      1  0.4688480000000  0.4890170000000  0.5406060000000 1.0
C      1  0.4897650000000  0.5403060000000  0.4713460000000 1.0
C      1  0.5424230000000  0.4674860000000  0.4911570000000 1.0
C      1  0.5308500000000  0.5108570000000  0.5403560000000 1.0
C      1  0.4697950000000  0.5103150000000  0.4610350000000 1.0
C      1  0.5306480000000  0.4888180000000  0.4615510000000 1.0
C      1  0.5116630000000  0.4581970000000  0.4708820000000 1.0
C      1  0.4894350000000  0.4574530000000  0.5308730000000 1.0
C      1  0.5104660000000  0.5402640000000  0.5294160000000 1.0
C      1  0.4582420000000  0.5317000000000  0.4908180000000 1.0
C      1  0.5419810000000  0.5310240000000  0.5111440000000 1.0
C      1  0.4592540000000  0.4684290000000  0.5105000000000 1.0
C      1  0.5458700000000  0.5253270000000  0.5356020000000 1.0
C      1  0.5355420000000  0.5461030000000  0.5254310000000 1.0
C      1  0.5241980000000  0.5351730000000  0.5453060000000 1.0
C      1  0.4540450000000  0.4747980000000  0.5345570000000 1.0
C      1  0.4550410000000  0.5246660000000  0.4669340000000 1.0
C      1  0.5465200000000  0.4745790000000  0.4664800000000 1.0
C      1  0.4648020000000  0.4533590000000  0.5246780000000 1.0
C      1  0.4649740000000  0.5456970000000  0.4764080000000 1.0
C      1  0.5360120000000  0.4529890000000  0.4765570000000 1.0
C      1  0.4748510000000  0.4647360000000  0.5451080000000 1.0
C      1  0.4755400000000  0.5346850000000  0.4564930000000 1.0
C      1  0.5256260000000  0.4643120000000  0.4561900000000 1.0
C      1  0.5245120000000  0.5457840000000  0.5348150000000 1.0
C      1  0.5460490000000  0.5354920000000  0.5254440000000 1.0
C      1  0.5345450000000  0.5250980000000  0.5454680000000 1.0
C      1  0.4749830000000  0.4535770000000  0.5349890000000 1.0
C      1  0.5256180000000  0.4534150000000  0.4664440000000 1.0
C      1  0.4755430000000  0.5451250000000  0.4669390000000 1.0
C      1  0.4541520000000  0.4641030000000  0.5248430000000 1.0
C      1  0.5463690000000  0.4640670000000  0.4766610000000 1.0
C      1  0.4544250000000  0.5353820000000  0.4763150000000 1.0
C      1  0.4645480000000  0.4749690000000  0.5452440000000 1.0
C      1  0.5356460000000  0.4746930000000  0.4561440000000 1.0
C      1  0.4654750000000  0.5245870000000  0.4565180000000 1.0
C      1  0.5385820000000  0.4708000000000  0.5637990000000 1.0
C      1  0.5647880000000  0.5399440000000  0.4706070000000 1.0
C      1  0.4704460000000  0.5669650000000  0.5388450000000 1.0
C      1  0.4603960000000  0.5298210000000  0.5658900000000 1.0
C      1  0.4613170000000  0.4712910000000  0.4315230000000 1.0
C      1  0.5392960000000  0.5288230000000  0.4331550000000 1.0
C      1  0.4309220000000  0.4617320000000  0.4705030000000 1.0
C      1  0.4334420000000  0.5387930000000  0.5298310000000 1.0
C      1  0.5576290000000  0.4650210000000  0.5334430000000 1.0
C      1  0.5304800000000  0.4348510000000  0.5419560000000 1.0
C      1  0.5297680000000  0.5642530000000  0.4615020000000 1.0
C      1  0.4706890000000  0.4368070000000  0.4595280000000 1.0
C      1  0.4700090000000  0.5390420000000  0.5656110000000 1.0
C      1  0.5386020000000  0.5685050000000  0.4707560000000 1.0
C      1  0.5593850000000  0.4801890000000  0.5368820000000 1.0
C      1  0.5292340000000  0.4625740000000  0.5684220000000 1.0
C      1  0.4711770000000  0.4613350000000  0.4315040000000 1.0
C      1  0.5297000000000  0.5388630000000  0.4332450000000 1.0
C      1  0.4611140000000  0.4368390000000  0.4687700000000 1.0
C      1  0.5383810000000  0.4404330000000  0.5323520000000 1.0
C      1  0.4609390000000  0.5675220000000  0.5296660000000 1.0
C      1  0.4334070000000  0.5295370000000  0.5394770000000 1.0
C      1  0.5632810000000  0.5302900000000  0.4614950000000 1.0
C      1  0.4364170000000  0.4699330000000  0.4613860000000 1.0
C      1  0.5174990000000  0.5584240000000  0.5379200000000 1.0
C      1  0.5398440000000  0.5192710000000  0.5585020000000 1.0
C      1  0.5588280000000  0.5400060000000  0.5197660000000 1.0
C      1  0.4803200000000  0.4410190000000  0.5402000000000 1.0
C      1  0.4807660000000  0.5579220000000  0.4625070000000 1.0
C      1  0.5198030000000  0.4406980000000  0.4618330000000 1.0
C      1  0.4598790000000  0.4810530000000  0.5586910000000 1.0
C      1  0.4612760000000  0.5194140000000  0.4436030000000 1.0
C      1  0.5381630000000  0.4815690000000  0.4431500000000 1.0
C      1  0.4411810000000  0.4608180000000  0.5182270000000 1.0
C      1  0.4414280000000  0.5401200000000  0.4810980000000 1.0
C      1  0.5588960000000  0.4581840000000  0.4815120000000 1.0
C      1  0.5590730000000  0.5208550000000  0.5396720000000 1.0
C      1  0.5172140000000  0.5385600000000  0.5580040000000 1.0
C      1  0.5398680000000  0.5590270000000  0.5200030000000 1.0
C      1  0.4415330000000  0.4821500000000  0.5376760000000 1.0
C      1  0.5594830000000  0.4812300000000  0.4627050000000 1.0
C      1  0.4422710000000  0.5193220000000  0.4624960000000 1.0
C      1  0.4802890000000  0.4607490000000  0.5580030000000 1.0
C      1  0.5198870000000  0.4607730000000  0.4432490000000 1.0
C      1  0.4808220000000  0.5388700000000  0.4435870000000 1.0
C      1  0.4610570000000  0.4405900000000  0.5177840000000 1.0
C      1  0.5409300000000  0.4397790000000  0.4808440000000 1.0
C      1  0.4602460000000  0.5586680000000  0.4811490000000 1.0
C      1  0.5053780000000  0.4828910000000  0.4601380000000 1.0
C      1  0.4584870000000  0.5062750000000  0.4859760000000 1.0
C      1  0.4841740000000  0.4562230000000  0.5059300000000 1.0
C      1  0.4949510000000  0.5161420000000  0.4600380000000 1.0
C      1  0.4933880000000  0.4826600000000  0.5423480000000 1.0
C      1  0.5045240000000  0.5166080000000  0.5411580000000 1.0
C      1  0.5437280000000  0.4936620000000  0.4852460000000 1.0
C      1  0.5454190000000  0.5056900000000  0.5176880000000 1.0
C      1  0.4583400000000  0.4938880000000  0.5153070000000 1.0
C      1  0.5187350000000  0.5431530000000  0.5053130000000 1.0
C      1  0.5187710000000  0.4533430000000  0.4964350000000 1.0
C      1  0.4824110000000  0.5425580000000  0.4963760000000 1.0
C      1  0.4838780000000  0.5048290000000  0.4599480000000 1.0
C      1  0.5074140000000  0.4561180000000  0.4855990000000 1.0
C      1  0.4573700000000  0.4821090000000  0.5052420000000 1.0
C      1  0.5162520000000  0.4940930000000  0.4604900000000 1.0
C      1  0.4824460000000  0.4938490000000  0.5425330000000 1.0
C      1  0.5160830000000  0.5055760000000  0.5410520000000 1.0
C      1  0.4941980000000  0.5415210000000  0.4858260000000 1.0
C      1  0.5067340000000  0.5418870000000  0.5150110000000 1.0
C      1  0.4950700000000  0.4553800000000  0.5172380000000 1.0
C      1  0.5436290000000  0.5163330000000  0.5066880000000 1.0
C      1  0.4567020000000  0.5180100000000  0.4960680000000 1.0
C      1  0.5444860000000  0.4821920000000  0.4959850000000 1.0
C      1  0.4816740000000  0.4554150000000  0.5776530000000 1.0
C      1  0.5708980000000  0.4819010000000  0.4547250000000 1.0
C      1  0.4548270000000  0.5777870000000  0.4822920000000 1.0
C      1  0.5179690000000  0.5454670000000  0.5700820000000 1.0
C      1  0.5176920000000  0.4549750000000  0.4224960000000 1.0
C      1  0.4828690000000  0.5453840000000  0.4242740000000 1.0
C      1  0.4233470000000  0.5172940000000  0.4547760000000 1.0
C      1  0.4293460000000  0.4815730000000  0.5445340000000 1.0
C      1  0.5797940000000  0.5220660000000  0.5449610000000 1.0
C      1  0.5434170000000  0.4189640000000  0.4763380000000 1.0
C      1  0.5453910000000  0.5786900000000  0.5180870000000 1.0
C      1  0.4539570000000  0.4286320000000  0.5172430000000 1.0
C      1  0.4555620000000  0.4826920000000  0.5722210000000 1.0
C      1  0.4825920000000  0.5769250000000  0.4547300000000 1.0
C      1  0.5788690000000  0.4542990000000  0.4750840000000 1.0
C      1  0.5422870000000  0.5190940000000  0.5731900000000 1.0
C      1  0.4550630000000  0.5178890000000  0.4238820000000 1.0
C      1  0.5439250000000  0.4814480000000  0.4303930000000 1.0
C      1  0.5159190000000  0.4225290000000  0.4518230000000 1.0
C      1  0.4748940000000  0.4197820000000  0.5452540000000 1.0
C      1  0.5183260000000  0.5708570000000  0.5442240000000 1.0
C      1  0.4221430000000  0.5447280000000  0.4820920000000 1.0
C      1  0.5776970000000  0.5472040000000  0.5168210000000 1.0
C      1  0.4284140000000  0.4552900000000  0.5190160000000 1.0
C      1  0.4738800000000  0.5579800000000  0.5147930000000 1.0
C      1  0.5141860000000  0.4746360000000  0.5567510000000 1.0
C      1  0.5547850000000  0.5143910000000  0.4755210000000 1.0
C      1  0.5251050000000  0.4352480000000  0.5148870000000 1.0
C      1  0.5265420000000  0.5552700000000  0.4855470000000 1.0
C      1  0.4750340000000  0.4453890000000  0.4852500000000 1.0
C      1  0.4849150000000  0.5246490000000  0.5569710000000 1.0
C      1  0.4854470000000  0.4742880000000  0.4467650000000 1.0
C      1  0.5149880000000  0.5255610000000  0.4477910000000 1.0
C      1  0.4460450000000  0.4847830000000  0.4755130000000 1.0
C      1  0.4447980000000  0.5158450000000  0.5249270000000 1.0
C      1  0.5613730000000  0.4851970000000  0.5236240000000 1.0
C      1  0.5657680000000  0.4748060000000  0.5139920000000 1.0
C      1  0.4740800000000  0.5155300000000  0.5543720000000 1.0
C      1  0.5150260000000  0.5546390000000  0.4752470000000 1.0
C      1  0.4413040000000  0.5254280000000  0.5146210000000 1.0
C      1  0.5549950000000  0.5259320000000  0.4856140000000 1.0
C      1  0.4424000000000  0.4749550000000  0.4855260000000 1.0
C      1  0.5245540000000  0.4863270000000  0.5571890000000 1.0
C      1  0.4745330000000  0.4851580000000  0.4469440000000 1.0
C      1  0.5255330000000  0.5146120000000  0.4481370000000 1.0
C      1  0.4855840000000  0.4453610000000  0.4743570000000 1.0
C      1  0.5140320000000  0.4329750000000  0.5252770000000 1.0
C      1  0.4849290000000  0.5570480000000  0.5249540000000 1.0
C      1  0.5409660000000  0.5397870000000  0.4414950000000 1.0
C      1  0.5368250000000  0.4544940000000  0.5302000000000 1.0
C      1  0.4466660000000  0.5356540000000  0.5366910000000 1.0
C      1  0.4641050000000  0.5537130000000  0.5354530000000 1.0
C      1  0.4669850000000  0.4506780000000  0.4613010000000 1.0
C      1  0.5314200000000  0.5501980000000  0.4598530000000 1.0
C      1  0.4597860000000  0.4599390000000  0.4392530000000 1.0
C      1  0.4632880000000  0.5359630000000  0.5525200000000 1.0
C      1  0.5389000000000  0.4712390000000  0.5483410000000 1.0
C      1  0.5449490000000  0.4836410000000  0.5420490000000 1.0
C      1  0.5506610000000  0.5375290000000  0.4657100000000 1.0
C      1  0.4506960000000  0.4681160000000  0.4603390000000 1.0
C      1  0.4557660000000  0.5447340000000  0.5436760000000 1.0
C      1  0.5432000000000  0.5440810000000  0.4549170000000 1.0
C      1  0.5451450000000  0.4612940000000  0.5393280000000 1.0
C      1  0.4570710000000  0.4576700000000  0.4531600000000 1.0
END
