TITL C-3151192-8964-126 -0.00517395652361869 1000000 -3710.28070577985 0 0 520 (C1) n - 1
REM
REM in /scratch/bkarasulu/Only-C240/Try4-Only-SYMOP24
REM
REM
REM
REM
REM
REM ./C.cell (018bbde761a0794ceee8127bb1f748ef)
REM
REM compiler GCC version 9.2.1 20190827 (Red Hat 9.2.1-1)
REM options -cpp -mtune=generic -march=x86-64 -g -O0 -fpre-include=/usr/include/finclude/math-vector-fortran.h
REM seed -2062512023 1961274423 -1243721295 -187276341 -769922216 1805870686 1527610886 367637536 1741928118 28560935 1761961340 693760102 -325135922 -111821574 618110645 -1201027658 1538059841 550372062 -1863742705 -984349800 -394995189 451066555 -1892943749 -835763632 -803018066 -1829419152 1816783112 1788644804 2123490551 1337169612 62142905 -672437910 994349378
REM
CELL 1.54180  100.00000  100.00000  100.00000   90.00000   90.00000   90.00000
LATT -1
SFAC C  
C      1  0.4696270000000  0.5513680000000  0.4592280000000 1.0
C      1  0.5514870000000  0.4592780000000  0.4697980000000 1.0
C      1  0.4592640000000  0.4697590000000  0.5514040000000 1.0
C      1  0.4695650000000  0.4486630000000  0.5406900000000 1.0
C      1  0.5304680000000  0.5514840000000  0.5405570000000 1.0
C      1  0.5304600000000  0.4485530000000  0.4594960000000 1.0
C      1  0.5514950000000  0.5407610000000  0.5301360000000 1.0
C      1  0.4483860000000  0.4593200000000  0.5304930000000 1.0
C      1  0.4486180000000  0.5406520000000  0.4695540000000 1.0
C      1  0.4594960000000  0.5301730000000  0.4486560000000 1.0
C      1  0.5408780000000  0.4695630000000  0.4487180000000 1.0
C      1  0.5407680000000  0.5304520000000  0.5511660000000 1.0
C      1  0.4695740000000  0.4594240000000  0.5513850000000 1.0
C      1  0.5515930000000  0.4695990000000  0.4594630000000 1.0
C      1  0.4592770000000  0.5514380000000  0.4695100000000 1.0
C      1  0.4697400000000  0.5405170000000  0.4486290000000 1.0
C      1  0.5304450000000  0.5407510000000  0.5512580000000 1.0
C      1  0.5304820000000  0.4592760000000  0.4487460000000 1.0
C      1  0.5515170000000  0.5304780000000  0.5404490000000 1.0
C      1  0.4487210000000  0.5302710000000  0.4593060000000 1.0
C      1  0.4484330000000  0.4696680000000  0.5407850000000 1.0
C      1  0.4591640000000  0.4486470000000  0.5304320000000 1.0
C      1  0.5407330000000  0.4485800000000  0.4698390000000 1.0
C      1  0.5407680000000  0.5514720000000  0.5302090000000 1.0
C      1  0.5005080000000  0.4887470000000  0.4778030000000 1.0
C      1  0.4884210000000  0.4776780000000  0.4999480000000 1.0
C      1  0.4775520000000  0.5002220000000  0.4886020000000 1.0
C      1  0.5003050000000  0.5113050000000  0.5222630000000 1.0
C      1  0.4998090000000  0.4885800000000  0.5222710000000 1.0
C      1  0.5000210000000  0.5113740000000  0.4777420000000 1.0
C      1  0.4887230000000  0.5225190000000  0.4999520000000 1.0
C      1  0.5112830000000  0.4775030000000  0.4999790000000 1.0
C      1  0.5115470000000  0.5224880000000  0.5001470000000 1.0
C      1  0.4773620000000  0.4998450000000  0.5113720000000 1.0
C      1  0.5226010000000  0.5001030000000  0.5112680000000 1.0
C      1  0.5225160000000  0.4995570000000  0.4888430000000 1.0
C      1  0.5002400000000  0.4775600000000  0.4887060000000 1.0
C      1  0.4888220000000  0.5001580000000  0.4777410000000 1.0
C      1  0.4773250000000  0.4887590000000  0.5000860000000 1.0
C      1  0.5003160000000  0.5225450000000  0.5114030000000 1.0
C      1  0.4999350000000  0.5225250000000  0.4887560000000 1.0
C      1  0.4994910000000  0.4776570000000  0.5111870000000 1.0
C      1  0.4886720000000  0.4997790000000  0.5222270000000 1.0
C      1  0.5116000000000  0.4998690000000  0.4777520000000 1.0
C      1  0.5114910000000  0.5000210000000  0.5222660000000 1.0
C      1  0.4775690000000  0.5114130000000  0.4999180000000 1.0
C      1  0.5225520000000  0.5112900000000  0.5001280000000 1.0
C      1  0.5225000000000  0.4884110000000  0.5000280000000 1.0
C      1  0.5512690000000  0.5130230000000  0.4678070000000 1.0
C      1  0.5135850000000  0.4680620000000  0.5509560000000 1.0
C      1  0.4679200000000  0.5513390000000  0.5135080000000 1.0
C      1  0.5514750000000  0.4865620000000  0.5319640000000 1.0
C      1  0.4484760000000  0.5135220000000  0.5320750000000 1.0
C      1  0.4491290000000  0.4870660000000  0.4676150000000 1.0
C      1  0.5130790000000  0.5325080000000  0.4494230000000 1.0
C      1  0.4870880000000  0.4678050000000  0.4490640000000 1.0
C      1  0.4861970000000  0.5322650000000  0.5510830000000 1.0
C      1  0.4672930000000  0.4493450000000  0.4869330000000 1.0
C      1  0.5324560000000  0.5509880000000  0.4869330000000 1.0
C      1  0.5326400000000  0.4484620000000  0.5138930000000 1.0
C      1  0.5510310000000  0.4675520000000  0.5131260000000 1.0
C      1  0.5135730000000  0.5514110000000  0.4679870000000 1.0
C      1  0.4676530000000  0.5134540000000  0.5503760000000 1.0
C      1  0.5516120000000  0.5327140000000  0.4861750000000 1.0
C      1  0.4493230000000  0.5323970000000  0.5131330000000 1.0
C      1  0.4484310000000  0.4680220000000  0.4863650000000 1.0
C      1  0.5129080000000  0.4489710000000  0.5322210000000 1.0
C      1  0.4864330000000  0.4490070000000  0.4680620000000 1.0
C      1  0.4868990000000  0.5508600000000  0.5322660000000 1.0
C      1  0.4674770000000  0.4862860000000  0.4485610000000 1.0
C      1  0.5325780000000  0.4870640000000  0.5505540000000 1.0
C      1  0.5322080000000  0.5136790000000  0.4490420000000 1.0
C      1  0.5487590000000  0.4721180000000  0.5373290000000 1.0
C      1  0.4716520000000  0.5376730000000  0.5484950000000 1.0
C      1  0.5368250000000  0.5471210000000  0.4736070000000 1.0
C      1  0.5443460000000  0.5267860000000  0.4651360000000 1.0
C      1  0.4529790000000  0.4737140000000  0.4632450000000 1.0
C      1  0.4514750000000  0.5281100000000  0.5371950000000 1.0
C      1  0.4733330000000  0.4652020000000  0.4558950000000 1.0
C      1  0.5260550000000  0.5367940000000  0.4539310000000 1.0
C      1  0.5282220000000  0.4631860000000  0.5480140000000 1.0
C      1  0.5385160000000  0.4510720000000  0.5284330000000 1.0
C      1  0.4625840000000  0.5484750000000  0.5279840000000 1.0
C      1  0.4631260000000  0.4539480000000  0.4739960000000 1.0
C      1  0.5490420000000  0.5386050000000  0.4716250000000 1.0
C      1  0.4736430000000  0.5462550000000  0.5363990000000 1.0
C      1  0.5367970000000  0.4741110000000  0.5460260000000 1.0
C      1  0.5470720000000  0.4632460000000  0.5264280000000 1.0
C      1  0.4511730000000  0.4626880000000  0.4719430000000 1.0
C      1  0.4539730000000  0.5364390000000  0.5261510000000 1.0
C      1  0.4718060000000  0.4520350000000  0.4631530000000 1.0
C      1  0.5266900000000  0.4558460000000  0.5348860000000 1.0
C      1  0.5280100000000  0.5487690000000  0.4626480000000 1.0
C      1  0.5370550000000  0.5283070000000  0.4519670000000 1.0
C      1  0.4631880000000  0.5266540000000  0.5462130000000 1.0
C      1  0.4615720000000  0.4717300000000  0.4510890000000 1.0
C      1  0.4844360000000  0.5376630000000  0.4507050000000 1.0
C      1  0.5378340000000  0.4506040000000  0.4846490000000 1.0
C      1  0.4503180000000  0.4843550000000  0.5377260000000 1.0
C      1  0.4842670000000  0.4624170000000  0.5493390000000 1.0
C      1  0.5156490000000  0.5377310000000  0.5491750000000 1.0
C      1  0.5157330000000  0.4622770000000  0.4508410000000 1.0
C      1  0.5378430000000  0.5495460000000  0.5155280000000 1.0
C      1  0.4619540000000  0.4506230000000  0.5156610000000 1.0
C      1  0.4622440000000  0.5495090000000  0.4842830000000 1.0
C      1  0.4506580000000  0.5156300000000  0.4623030000000 1.0
C      1  0.5496070000000  0.4843470000000  0.4624210000000 1.0
C      1  0.5495430000000  0.5157720000000  0.5374860000000 1.0
C      1  0.4842820000000  0.4507170000000  0.5376300000000 1.0
C      1  0.5379420000000  0.4843150000000  0.4506910000000 1.0
C      1  0.4506240000000  0.5378040000000  0.4843060000000 1.0
C      1  0.4843630000000  0.5494000000000  0.4622700000000 1.0
C      1  0.5157930000000  0.5495090000000  0.5376090000000 1.0
C      1  0.5157690000000  0.4505460000000  0.4625130000000 1.0
C      1  0.5378610000000  0.5157300000000  0.5490960000000 1.0
C      1  0.4624370000000  0.5154210000000  0.4507710000000 1.0
C      1  0.4621690000000  0.4845390000000  0.5492240000000 1.0
C      1  0.4502560000000  0.4622500000000  0.5157030000000 1.0
C      1  0.5495840000000  0.4621610000000  0.4844820000000 1.0
C      1  0.5494430000000  0.5378300000000  0.5153480000000 1.0
C      1  0.4996600000000  0.5872180000000  0.4895670000000 1.0
C      1  0.5872580000000  0.4900510000000  0.4998270000000 1.0
C      1  0.4898620000000  0.4997360000000  0.5869430000000 1.0
C      1  0.4999350000000  0.4127970000000  0.5101680000000 1.0
C      1  0.5000820000000  0.5872690000000  0.5101280000000 1.0
C      1  0.5002740000000  0.4130340000000  0.4896210000000 1.0
C      1  0.5874150000000  0.5106560000000  0.5003040000000 1.0
C      1  0.4127540000000  0.4897400000000  0.5002830000000 1.0
C      1  0.4127900000000  0.5103050000000  0.4999020000000 1.0
C      1  0.4897300000000  0.5001180000000  0.4128550000000 1.0
C      1  0.5104370000000  0.4999960000000  0.4130880000000 1.0
C      1  0.5103090000000  0.5004910000000  0.5868880000000 1.0
C      1  0.5000480000000  0.4897720000000  0.5869030000000 1.0
C      1  0.5874730000000  0.5001470000000  0.4898120000000 1.0
C      1  0.4895540000000  0.5872280000000  0.4996640000000 1.0
C      1  0.4997270000000  0.5102560000000  0.4130530000000 1.0
C      1  0.5001340000000  0.5104590000000  0.5870200000000 1.0
C      1  0.5004410000000  0.4898330000000  0.4129490000000 1.0
C      1  0.5872510000000  0.5004940000000  0.5103510000000 1.0
C      1  0.4127830000000  0.5002660000000  0.4898320000000 1.0
C      1  0.4127780000000  0.4998290000000  0.5104110000000 1.0
C      1  0.4898300000000  0.4130170000000  0.5001470000000 1.0
C      1  0.5104410000000  0.4128370000000  0.4996760000000 1.0
C      1  0.5101250000000  0.5872620000000  0.5000800000000 1.0
C      1  0.5589490000000  0.4804130000000  0.5081250000000 1.0
C      1  0.4803910000000  0.5082960000000  0.5584580000000 1.0
C      1  0.5082780000000  0.5591080000000  0.4806760000000 1.0
C      1  0.5590780000000  0.5196760000000  0.4917310000000 1.0
C      1  0.4407780000000  0.4807560000000  0.4916630000000 1.0
C      1  0.4412080000000  0.5196300000000  0.5080140000000 1.0
C      1  0.4805530000000  0.4918210000000  0.4411680000000 1.0
C      1  0.5194970000000  0.5084700000000  0.4412950000000 1.0
C      1  0.5196920000000  0.4920000000000  0.5585110000000 1.0
C      1  0.5079210000000  0.4412220000000  0.5195270000000 1.0
C      1  0.4919820000000  0.5589180000000  0.5194060000000 1.0
C      1  0.4915880000000  0.4411830000000  0.4807300000000 1.0
C      1  0.5590030000000  0.5080450000000  0.4805110000000 1.0
C      1  0.4806650000000  0.5590600000000  0.5082000000000 1.0
C      1  0.5083850000000  0.4807850000000  0.5587000000000 1.0
C      1  0.5591790000000  0.4918370000000  0.5192710000000 1.0
C      1  0.4411280000000  0.4921170000000  0.4804270000000 1.0
C      1  0.4408500000000  0.5083370000000  0.5192720000000 1.0
C      1  0.4801780000000  0.4413780000000  0.4918380000000 1.0
C      1  0.5195720000000  0.4410410000000  0.5083250000000 1.0
C      1  0.5196010000000  0.5589220000000  0.4919440000000 1.0
C      1  0.5081540000000  0.5196350000000  0.4414350000000 1.0
C      1  0.4917230000000  0.5195020000000  0.5587110000000 1.0
C      1  0.4920690000000  0.4804920000000  0.4413350000000 1.0
C      1  0.5158010000000  0.5375770000000  0.5263810000000 1.0
C      1  0.5377220000000  0.5265890000000  0.5149790000000 1.0
C      1  0.5265800000000  0.5156140000000  0.5372430000000 1.0
C      1  0.5158400000000  0.4623990000000  0.4738820000000 1.0
C      1  0.4844540000000  0.5375440000000  0.4735160000000 1.0
C      1  0.4841310000000  0.4626320000000  0.5263620000000 1.0
C      1  0.5376940000000  0.4732960000000  0.4846920000000 1.0
C      1  0.4625660000000  0.5265640000000  0.4844580000000 1.0
C      1  0.4621270000000  0.4734970000000  0.5154930000000 1.0
C      1  0.5267280000000  0.4843310000000  0.4626050000000 1.0
C      1  0.4736300000000  0.5151350000000  0.4625390000000 1.0
C      1  0.4733020000000  0.4847250000000  0.5373790000000 1.0
C      1  0.5155230000000  0.5265020000000  0.5373700000000 1.0
C      1  0.5376700000000  0.5157220000000  0.5261310000000 1.0
C      1  0.5267250000000  0.5375980000000  0.5153350000000 1.0
C      1  0.5158060000000  0.4734690000000  0.4627660000000 1.0
C      1  0.4841640000000  0.4736860000000  0.5374340000000 1.0
C      1  0.4845180000000  0.5263210000000  0.4625950000000 1.0
C      1  0.5376610000000  0.4842730000000  0.4736950000000 1.0
C      1  0.4621590000000  0.4844020000000  0.5264480000000 1.0
C      1  0.4625430000000  0.5155310000000  0.4734920000000 1.0
C      1  0.5266460000000  0.4623360000000  0.4850530000000 1.0
C      1  0.4731550000000  0.4625350000000  0.5154210000000 1.0
C      1  0.4735380000000  0.5376250000000  0.4844180000000 1.0
C      1  0.4900580000000  0.5276660000000  0.5371690000000 1.0
C      1  0.5288980000000  0.5381350000000  0.4916220000000 1.0
C      1  0.5385330000000  0.4916170000000  0.5283020000000 1.0
C      1  0.4916520000000  0.4720100000000  0.4627620000000 1.0
C      1  0.5085930000000  0.5287700000000  0.4623430000000 1.0
C      1  0.5079380000000  0.4716090000000  0.5383080000000 1.0
C      1  0.5275510000000  0.4625210000000  0.5110500000000 1.0
C      1  0.4715140000000  0.5384630000000  0.5083150000000 1.0
C      1  0.4709900000000  0.4623200000000  0.4913060000000 1.0
C      1  0.5376370000000  0.5083950000000  0.4720740000000 1.0
C      1  0.4619420000000  0.4918240000000  0.4711990000000 1.0
C      1  0.4610240000000  0.5078020000000  0.5286170000000 1.0
C      1  0.4925230000000  0.5384540000000  0.5288410000000 1.0
C      1  0.5288680000000  0.4914820000000  0.5375970000000 1.0
C      1  0.5375340000000  0.5275900000000  0.4889840000000 1.0
C      1  0.4921320000000  0.4615940000000  0.4716620000000 1.0
C      1  0.5083030000000  0.4626170000000  0.5279610000000 1.0
C      1  0.5085440000000  0.5384280000000  0.4716420000000 1.0
C      1  0.5286460000000  0.5080850000000  0.4617270000000 1.0
C      1  0.4721460000000  0.5099680000000  0.5366260000000 1.0
C      1  0.4725380000000  0.4890960000000  0.4626630000000 1.0
C      1  0.5381680000000  0.4710890000000  0.5084730000000 1.0
C      1  0.4613840000000  0.4716790000000  0.4914150000000 1.0
C      1  0.4621970000000  0.5287950000000  0.5084200000000 1.0
C      1  0.5457640000000  0.4428510000000  0.5068280000000 1.0
C      1  0.4427510000000  0.5068990000000  0.5455360000000 1.0
C      1  0.5065460000000  0.5457610000000  0.4429770000000 1.0
C      1  0.5457290000000  0.5574420000000  0.4934560000000 1.0
C      1  0.4540850000000  0.4429410000000  0.4934760000000 1.0
C      1  0.4544040000000  0.5572540000000  0.5067230000000 1.0
C      1  0.4427300000000  0.4935880000000  0.4543130000000 1.0
C      1  0.5571600000000  0.5069120000000  0.4547020000000 1.0
C      1  0.5573420000000  0.4933970000000  0.5454470000000 1.0
C      1  0.5069420000000  0.4546200000000  0.5569040000000 1.0
C      1  0.4931730000000  0.5454800000000  0.5568030000000 1.0
C      1  0.4932100000000  0.4547040000000  0.4431580000000 1.0
C      1  0.5456370000000  0.5070060000000  0.4431090000000 1.0
C      1  0.4429250000000  0.5457330000000  0.5065540000000 1.0
C      1  0.5068170000000  0.4430900000000  0.5453260000000 1.0
C      1  0.5458360000000  0.4936190000000  0.5569480000000 1.0
C      1  0.4543930000000  0.4933160000000  0.4428830000000 1.0
C      1  0.4546040000000  0.5068830000000  0.5566880000000 1.0
C      1  0.4425710000000  0.4544940000000  0.4932310000000 1.0
C      1  0.5574240000000  0.4543210000000  0.5065650000000 1.0
C      1  0.5572230000000  0.5458350000000  0.4932060000000 1.0
C      1  0.5067410000000  0.5572740000000  0.4544670000000 1.0
C      1  0.4934470000000  0.5572080000000  0.5455070000000 1.0
C      1  0.4930870000000  0.4430940000000  0.4546230000000 1.0
C      1  0.4183270000000  0.4981630000000  0.4771570000000 1.0
C      1  0.4980920000000  0.4771840000000  0.4184880000000 1.0
C      1  0.4771180000000  0.4185190000000  0.4980680000000 1.0
C      1  0.4182070000000  0.5022760000000  0.5231710000000 1.0
C      1  0.5818460000000  0.4979600000000  0.5230940000000 1.0
C      1  0.5819050000000  0.5023250000000  0.4771550000000 1.0
C      1  0.4977900000000  0.5232130000000  0.5815380000000 1.0
C      1  0.5024130000000  0.4770210000000  0.5814390000000 1.0
C      1  0.5019530000000  0.5229250000000  0.4185610000000 1.0
C      1  0.4768240000000  0.5817430000000  0.5021310000000 1.0
C      1  0.5232180000000  0.4182640000000  0.5021230000000 1.0
C      1  0.5228110000000  0.5817530000000  0.4979940000000 1.0
C      1  0.4181280000000  0.4769690000000  0.4977670000000 1.0
C      1  0.4977250000000  0.4184580000000  0.4768850000000 1.0
C      1  0.4769570000000  0.4978460000000  0.4183340000000 1.0
C      1  0.4183800000000  0.5229550000000  0.5020260000000 1.0
C      1  0.5818860000000  0.5233910000000  0.4978760000000 1.0
C      1  0.5817510000000  0.4773480000000  0.5019070000000 1.0
C      1  0.4980130000000  0.5816960000000  0.5227900000000 1.0
C      1  0.5021520000000  0.5817690000000  0.4768280000000 1.0
C      1  0.5021470000000  0.4183470000000  0.5228360000000 1.0
C      1  0.4772130000000  0.5020360000000  0.5813700000000 1.0
C      1  0.5231840000000  0.5023630000000  0.4185800000000 1.0
C      1  0.5229740000000  0.4982670000000  0.5813490000000 1.0
C      1  0.4720540000000  0.5661410000000  0.5550790000000 1.0
C      1  0.5645850000000  0.5564490000000  0.4721090000000 1.0
C      1  0.5552540000000  0.4721410000000  0.5658030000000 1.0
C      1  0.4719060000000  0.4363120000000  0.4446490000000 1.0
C      1  0.5280250000000  0.5644020000000  0.4443150000000 1.0
C      1  0.5283150000000  0.4344660000000  0.5545950000000 1.0
C      1  0.5665000000000  0.4448070000000  0.5279370000000 1.0
C      1  0.4340880000000  0.5551290000000  0.5280230000000 1.0
C      1  0.4355850000000  0.4443560000000  0.4719060000000 1.0
C      1  0.5555140000000  0.5282270000000  0.4362500000000 1.0
C      1  0.4437820000000  0.4722320000000  0.4354660000000 1.0
C      1  0.4449270000000  0.5282590000000  0.5660080000000 1.0
C      1  0.4720830000000  0.5559410000000  0.5642440000000 1.0
C      1  0.5644190000000  0.4721140000000  0.5556200000000 1.0
C      1  0.5552810000000  0.5665330000000  0.4720590000000 1.0
C      1  0.4717580000000  0.4454550000000  0.4344330000000 1.0
C      1  0.5281600000000  0.4447060000000  0.5637200000000 1.0
C      1  0.5280110000000  0.5552310000000  0.4341400000000 1.0
C      1  0.5657340000000  0.5284100000000  0.4453970000000 1.0
C      1  0.4358540000000  0.5281720000000  0.5557330000000 1.0
C      1  0.4336390000000  0.4722050000000  0.4447100000000 1.0
C      1  0.5563720000000  0.4355370000000  0.5279160000000 1.0
C      1  0.4447540000000  0.4341620000000  0.4719640000000 1.0
C      1  0.4442950000000  0.5642670000000  0.5280050000000 1.0
C      1  0.4738960000000  0.4984580000000  0.5678990000000 1.0
C      1  0.4983190000000  0.5683520000000  0.4738410000000 1.0
C      1  0.5683300000000  0.4738940000000  0.4981930000000 1.0
C      1  0.4739410000000  0.5016430000000  0.4317890000000 1.0
C      1  0.5263220000000  0.4985580000000  0.4320080000000 1.0
C      1  0.5262580000000  0.5019210000000  0.5678880000000 1.0
C      1  0.4981530000000  0.4316930000000  0.5261830000000 1.0
C      1  0.5018270000000  0.5682620000000  0.5261020000000 1.0
C      1  0.5014740000000  0.4318920000000  0.4738510000000 1.0
C      1  0.5684030000000  0.5263470000000  0.5015710000000 1.0
C      1  0.4315130000000  0.4739120000000  0.5016130000000 1.0
C      1  0.4318080000000  0.5262790000000  0.4982240000000 1.0
C      1  0.4738120000000  0.5683270000000  0.4982810000000 1.0
C      1  0.4985410000000  0.4739300000000  0.5680230000000 1.0
C      1  0.5685670000000  0.4983040000000  0.4738400000000 1.0
C      1  0.4736920000000  0.4319520000000  0.5017630000000 1.0
C      1  0.5262400000000  0.4317320000000  0.4984650000000 1.0
C      1  0.5261890000000  0.5683400000000  0.5017730000000 1.0
C      1  0.4982690000000  0.5261940000000  0.4320060000000 1.0
C      1  0.5015650000000  0.5262010000000  0.5680690000000 1.0
C      1  0.5019200000000  0.4738520000000  0.4318650000000 1.0
C      1  0.5684450000000  0.5017980000000  0.5260820000000 1.0
C      1  0.4317510000000  0.5019570000000  0.4738100000000 1.0
C      1  0.4316120000000  0.4984010000000  0.5261880000000 1.0
C      1  0.4607100000000  0.5595110000000  0.4502580000000 1.0
C      1  0.5597720000000  0.4503850000000  0.4609490000000 1.0
C      1  0.4504990000000  0.4608350000000  0.5597810000000 1.0
C      1  0.4606790000000  0.4404110000000  0.5496080000000 1.0
C      1  0.5394180000000  0.5597480000000  0.5493640000000 1.0
C      1  0.5393910000000  0.4402360000000  0.4507050000000 1.0
C      1  0.5597800000000  0.5495990000000  0.5390660000000 1.0
C      1  0.4402020000000  0.4504930000000  0.5395110000000 1.0
C      1  0.4403370000000  0.5493530000000  0.4604920000000 1.0
C      1  0.4506670000000  0.5389710000000  0.4402340000000 1.0
C      1  0.5496920000000  0.4605510000000  0.4405100000000 1.0
C      1  0.5496380000000  0.5393340000000  0.5594670000000 1.0
C      1  0.4607130000000  0.4506070000000  0.5597430000000 1.0
C      1  0.5598360000000  0.4605680000000  0.4506830000000 1.0
C      1  0.4504450000000  0.5595630000000  0.4604230000000 1.0
C      1  0.4608520000000  0.5492370000000  0.4401910000000 1.0
C      1  0.5394300000000  0.5495660000000  0.5595110000000 1.0
C      1  0.5394280000000  0.4503780000000  0.4405200000000 1.0
C      1  0.5598070000000  0.5393790000000  0.5492900000000 1.0
C      1  0.4404340000000  0.5390440000000  0.4503540000000 1.0
C      1  0.4402530000000  0.4607460000000  0.5497020000000 1.0
C      1  0.4503990000000  0.4403710000000  0.5394390000000 1.0
C      1  0.5495760000000  0.4402460000000  0.4609670000000 1.0
C      1  0.5496080000000  0.5597620000000  0.5391070000000 1.0
C      1  0.5459140000000  0.4610770000000  0.5679030000000 1.0
C      1  0.4609080000000  0.5683180000000  0.5458420000000 1.0
C      1  0.5598660000000  0.5460940000000  0.4632650000000 1.0
C      1  0.5450250000000  0.5368420000000  0.4409240000000 1.0
C      1  0.4541060000000  0.4633750000000  0.4402350000000 1.0
C      1  0.4541220000000  0.5394340000000  0.5683920000000 1.0
C      1  0.4633090000000  0.4409900000000  0.4551560000000 1.0
C      1  0.5368970000000  0.5597750000000  0.4547140000000 1.0
C      1  0.5394550000000  0.4317630000000  0.5456630000000 1.0
C      1  0.5685200000000  0.4541750000000  0.5390570000000 1.0
C      1  0.4317980000000  0.5459620000000  0.5391530000000 1.0
C      1  0.4402260000000  0.4547450000000  0.4630280000000 1.0
C      1  0.5459380000000  0.5685250000000  0.4609060000000 1.0
C      1  0.4631730000000  0.5456200000000  0.5596440000000 1.0
C      1  0.5597780000000  0.4632350000000  0.5452330000000 1.0
C      1  0.5460270000000  0.4402530000000  0.5367710000000 1.0
C      1  0.4541440000000  0.4320940000000  0.4609410000000 1.0
C      1  0.4546190000000  0.5595820000000  0.5368990000000 1.0
C      1  0.4606540000000  0.4544380000000  0.4317600000000 1.0
C      1  0.5367640000000  0.4552100000000  0.5590390000000 1.0
C      1  0.5390960000000  0.5459210000000  0.4320380000000 1.0
C      1  0.5683600000000  0.5395500000000  0.4543550000000 1.0
C      1  0.4405280000000  0.5368450000000  0.5451830000000 1.0
C      1  0.4315340000000  0.4610290000000  0.4539980000000 1.0
C      1  0.4621860000000  0.5057630000000  0.4393930000000 1.0
C      1  0.5058200000000  0.4394360000000  0.4622100000000 1.0
C      1  0.4389810000000  0.4621530000000  0.5059140000000 1.0
C      1  0.4620700000000  0.4943800000000  0.5603790000000 1.0
C      1  0.5381130000000  0.5061190000000  0.5604560000000 1.0
C      1  0.5380690000000  0.4942500000000  0.4395060000000 1.0
C      1  0.5060570000000  0.5607690000000  0.5378860000000 1.0
C      1  0.4941060000000  0.4394680000000  0.5378600000000 1.0
C      1  0.4940520000000  0.5607850000000  0.4621300000000 1.0
C      1  0.4393130000000  0.5380820000000  0.4940110000000 1.0
C      1  0.5609550000000  0.4619770000000  0.4940450000000 1.0
C      1  0.5607760000000  0.5380880000000  0.5056630000000 1.0
C      1  0.4617730000000  0.4393180000000  0.5059860000000 1.0
C      1  0.5059250000000  0.4621470000000  0.4395950000000 1.0
C      1  0.4392320000000  0.5061150000000  0.4619860000000 1.0
C      1  0.4620740000000  0.5608100000000  0.4940250000000 1.0
C      1  0.5380610000000  0.5609410000000  0.5059710000000 1.0
C      1  0.5380130000000  0.4393040000000  0.4943660000000 1.0
C      1  0.5057730000000  0.5378810000000  0.5603800000000 1.0
C      1  0.4940650000000  0.5380250000000  0.4394120000000 1.0
C      1  0.4942030000000  0.4622180000000  0.5605130000000 1.0
C      1  0.4391090000000  0.4941410000000  0.5379160000000 1.0
C      1  0.5608180000000  0.4942110000000  0.4621660000000 1.0
C      1  0.5608800000000  0.5060770000000  0.5377550000000 1.0
C      1  0.5835440000000  0.4838960000000  0.5264160000000 1.0
C      1  0.4837750000000  0.5266110000000  0.5833230000000 1.0
C      1  0.5261850000000  0.5838850000000  0.4840600000000 1.0
C      1  0.5839800000000  0.5163520000000  0.4738560000000 1.0
C      1  0.4161960000000  0.4842310000000  0.4737460000000 1.0
C      1  0.4165670000000  0.5163380000000  0.5265660000000 1.0
C      1  0.4840390000000  0.4738890000000  0.4162930000000 1.0
C      1  0.5159310000000  0.5263510000000  0.4164220000000 1.0
C      1  0.5164410000000  0.4736800000000  0.5832000000000 1.0
C      1  0.5267620000000  0.4164830000000  0.5161450000000 1.0
C      1  0.4734920000000  0.5834230000000  0.5161860000000 1.0
C      1  0.4736460000000  0.4163850000000  0.4841060000000 1.0
C      1  0.5836710000000  0.5269260000000  0.4838680000000 1.0
C      1  0.4840600000000  0.5838020000000  0.5261680000000 1.0
C      1  0.5264000000000  0.4842890000000  0.5835270000000 1.0
C      1  0.5838940000000  0.4739080000000  0.5158520000000 1.0
C      1  0.4164650000000  0.4736440000000  0.4837040000000 1.0
C      1  0.4162980000000  0.5263170000000  0.5159830000000 1.0
C      1  0.4836430000000  0.4167170000000  0.4735380000000 1.0
C      1  0.5161770000000  0.4162420000000  0.5261410000000 1.0
C      1  0.5161940000000  0.5835050000000  0.4735040000000 1.0
C      1  0.5265440000000  0.5163990000000  0.4167850000000 1.0
C      1  0.4738120000000  0.5160100000000  0.5835980000000 1.0
C      1  0.4734360000000  0.4838750000000  0.4165440000000 1.0
C      1  0.5004170000000  0.4893350000000  0.4515690000000 1.0
C      1  0.4889700000000  0.4515900000000  0.4999100000000 1.0
C      1  0.4513990000000  0.5002150000000  0.4891350000000 1.0
C      1  0.5001860000000  0.5107540000000  0.5483900000000 1.0
C      1  0.4999100000000  0.4894040000000  0.5484790000000 1.0
C      1  0.5000230000000  0.5107720000000  0.4516660000000 1.0
C      1  0.4894190000000  0.5487680000000  0.4999410000000 1.0
C      1  0.5107130000000  0.4513960000000  0.5001910000000 1.0
C      1  0.5109510000000  0.5486420000000  0.5000200000000 1.0
C      1  0.4510620000000  0.4999740000000  0.5105830000000 1.0
C      1  0.5488480000000  0.5001580000000  0.5105790000000 1.0
C      1  0.5487580000000  0.4996170000000  0.4893750000000 1.0
C      1  0.5000860000000  0.4513420000000  0.4894420000000 1.0
C      1  0.4893940000000  0.4999850000000  0.4515980000000 1.0
C      1  0.4510890000000  0.4894010000000  0.4999370000000 1.0
C      1  0.5002880000000  0.5487220000000  0.5106850000000 1.0
C      1  0.5000160000000  0.5487670000000  0.4893280000000 1.0
C      1  0.4995010000000  0.4514720000000  0.5106490000000 1.0
C      1  0.4892110000000  0.5000030000000  0.5482810000000 1.0
C      1  0.5109100000000  0.5000630000000  0.4515100000000 1.0
C      1  0.5108610000000  0.5000890000000  0.5482980000000 1.0
C      1  0.4514480000000  0.5108400000000  0.4998410000000 1.0
C      1  0.5487340000000  0.5107910000000  0.4998640000000 1.0
C      1  0.5486930000000  0.4890600000000  0.5000860000000 1.0
C      1  0.5364150000000  0.5188260000000  0.5011870000000 1.0
C      1  0.5190560000000  0.5017940000000  0.5360830000000 1.0
C      1  0.5022330000000  0.5365460000000  0.5188900000000 1.0
C      1  0.5364900000000  0.4808060000000  0.4983180000000 1.0
C      1  0.4637570000000  0.5189710000000  0.4981820000000 1.0
C      1  0.4632180000000  0.4811990000000  0.5017630000000 1.0
C      1  0.5190750000000  0.4980440000000  0.4636570000000 1.0
C      1  0.4813470000000  0.5012950000000  0.4638710000000 1.0
C      1  0.4811060000000  0.4981850000000  0.5359770000000 1.0
C      1  0.5021530000000  0.4634840000000  0.4813120000000 1.0
C      1  0.4982140000000  0.5365780000000  0.4811820000000 1.0
C      1  0.4975190000000  0.4638220000000  0.5186020000000 1.0
C      1  0.5366780000000  0.5019430000000  0.5187180000000 1.0
C      1  0.5191700000000  0.5364250000000  0.5017890000000 1.0
C      1  0.5019150000000  0.5188140000000  0.5361790000000 1.0
C      1  0.5364070000000  0.4976270000000  0.4814500000000 1.0
C      1  0.4631490000000  0.4979850000000  0.5188510000000 1.0
C      1  0.4636460000000  0.5019570000000  0.4809670000000 1.0
C      1  0.5188090000000  0.4636530000000  0.4988590000000 1.0
C      1  0.4807780000000  0.4638090000000  0.5016200000000 1.0
C      1  0.4812010000000  0.5365750000000  0.4981810000000 1.0
C      1  0.5024290000000  0.4813330000000  0.4639410000000 1.0
C      1  0.4978920000000  0.4812080000000  0.5363660000000 1.0
C      1  0.4982810000000  0.5189200000000  0.4638790000000 1.0
C      1  0.5220870000000  0.4620650000000  0.5773490000000 1.0
C      1  0.4619380000000  0.5775350000000  0.5218640000000 1.0
C      1  0.5785550000000  0.5213520000000  0.4620560000000 1.0
C      1  0.5208810000000  0.5381880000000  0.4218280000000 1.0
C      1  0.4789530000000  0.4621020000000  0.4216680000000 1.0
C      1  0.4781150000000  0.5382780000000  0.5775730000000 1.0
C      1  0.4618020000000  0.4218140000000  0.4791490000000 1.0
C      1  0.5380470000000  0.5785220000000  0.4791350000000 1.0
C      1  0.5385020000000  0.4221660000000  0.5218340000000 1.0
C      1  0.5776750000000  0.4782230000000  0.5379810000000 1.0
C      1  0.4224070000000  0.5220060000000  0.5381690000000 1.0
C      1  0.4216010000000  0.4793010000000  0.4619010000000 1.0
C      1  0.5218800000000  0.5776450000000  0.4619420000000 1.0
C      1  0.4619640000000  0.5210400000000  0.5782460000000 1.0
C      1  0.5785140000000  0.4620490000000  0.5207960000000 1.0
C      1  0.5212020000000  0.4216590000000  0.5379410000000 1.0
C      1  0.4779820000000  0.4226150000000  0.4619510000000 1.0
C      1  0.4791500000000  0.5783630000000  0.5379960000000 1.0
C      1  0.4616740000000  0.4782390000000  0.4221870000000 1.0
C      1  0.5382260000000  0.4793090000000  0.5781190000000 1.0
C      1  0.5381510000000  0.5220810000000  0.4226320000000 1.0
C      1  0.5779470000000  0.5386350000000  0.4781880000000 1.0
C      1  0.4217830000000  0.5381130000000  0.5209180000000 1.0
C      1  0.4223180000000  0.4620610000000  0.4780230000000 1.0
C      1  0.5159870000000  0.5481940000000  0.4308700000000 1.0
C      1  0.5486800000000  0.4308140000000  0.5165920000000 1.0
C      1  0.4309640000000  0.5167280000000  0.5484060000000 1.0
C      1  0.5167690000000  0.4519350000000  0.5687650000000 1.0
C      1  0.4834430000000  0.5483260000000  0.5688860000000 1.0
C      1  0.4837450000000  0.4523760000000  0.4311200000000 1.0
C      1  0.5481540000000  0.5696060000000  0.4840890000000 1.0
C      1  0.4517270000000  0.4308120000000  0.4840090000000 1.0
C      1  0.4516990000000  0.5690610000000  0.5165930000000 1.0
C      1  0.4305760000000  0.4842350000000  0.4518400000000 1.0
C      1  0.5691290000000  0.5164590000000  0.4523390000000 1.0
C      1  0.5691830000000  0.4835320000000  0.5481880000000 1.0
C      1  0.5163530000000  0.4311030000000  0.5476600000000 1.0
C      1  0.5483020000000  0.5168150000000  0.4312220000000 1.0
C      1  0.4308260000000  0.5481160000000  0.5160050000000 1.0
C      1  0.5165910000000  0.5691380000000  0.4517390000000 1.0
C      1  0.4840850000000  0.5693410000000  0.5480210000000 1.0
C      1  0.4832920000000  0.4312430000000  0.4518610000000 1.0
C      1  0.5482510000000  0.4841840000000  0.5690860000000 1.0
C      1  0.4515180000000  0.4835450000000  0.4308170000000 1.0
C      1  0.4521150000000  0.5162310000000  0.5690030000000 1.0
C      1  0.4307630000000  0.4517900000000  0.4833130000000 1.0
C      1  0.5696140000000  0.4519030000000  0.5158960000000 1.0
C      1  0.5692700000000  0.5487690000000  0.4834480000000 1.0
C      1  0.4230210000000  0.5360490000000  0.5349540000000 1.0
C      1  0.5349270000000  0.5361380000000  0.4231330000000 1.0
C      1  0.5352450000000  0.4228210000000  0.5359030000000 1.0
C      1  0.4228730000000  0.4652620000000  0.4639710000000 1.0
C      1  0.5773220000000  0.5353850000000  0.4641130000000 1.0
C      1  0.5771870000000  0.4641520000000  0.5348250000000 1.0
C      1  0.5361470000000  0.4652640000000  0.5768170000000 1.0
C      1  0.5359460000000  0.5771770000000  0.4651100000000 1.0
C      1  0.4651250000000  0.5770560000000  0.5359200000000 1.0
C      1  0.4640220000000  0.5351220000000  0.5770990000000 1.0
C      1  0.4649040000000  0.4641710000000  0.4228150000000 1.0
C      1  0.4639020000000  0.4231500000000  0.4651180000000 1.0
C      1  0.5220030000000  0.4660720000000  0.5245730000000 1.0
C      1  0.4785640000000  0.5215750000000  0.5307620000000 1.0
C      1  0.5340900000000  0.5220720000000  0.4754020000000 1.0
C      1  0.4779750000000  0.4755180000000  0.4661750000000 1.0
END
