TITL C-3151192-8964-69 0.0464623375970562 1000000 -3661.67383450435 0 0 520 (C1) n - 1
REM
REM in /scratch/bkarasulu/Only-C240/Try4-Only-SYMOP24
REM
REM
REM
REM
REM
REM ./C.cell (018bbde761a0794ceee8127bb1f748ef)
REM
REM compiler GCC version 9.2.1 20190827 (Red Hat 9.2.1-1)
REM options -cpp -mtune=generic -march=x86-64 -g -O0 -fpre-include=/usr/include/finclude/math-vector-fortran.h
REM seed -726263248 696150095 -942235903 1221148503 162886107 -2098970412 1767975554 -1861253354 1680968425 881318759 1186441732 -835192011 594232647 -638759896 828000903 -1118034873 -739772646 876426304 -763198361 235737171 -650714926 -2066495434 1470568109 837562407 -198017409 2108075412 -1098042075 373573530 -1750740187 457610964 -1388228849 415343125 1643079645
REM
CELL 1.54180  100.00000  100.00000  100.00000   90.00000   90.00000   90.00000
LATT -1
SFAC C  
C      1  0.4436750000000  0.4921030000000  0.4817520000000 1.0
C      1  0.4927680000000  0.4824210000000  0.4454810000000 1.0
C      1  0.4816110000000  0.4452810000000  0.4917680000000 1.0
C      1  0.5559870000000  0.4917530000000  0.5192060000000 1.0
C      1  0.5569170000000  0.5088270000000  0.4817840000000 1.0
C      1  0.4443450000000  0.5081430000000  0.5194250000000 1.0
C      1  0.5084050000000  0.4818620000000  0.5557720000000 1.0
C      1  0.5083970000000  0.5178540000000  0.4448740000000 1.0
C      1  0.4929900000000  0.5180610000000  0.5546740000000 1.0
C      1  0.5180140000000  0.4451590000000  0.5074330000000 1.0
C      1  0.5188410000000  0.5557210000000  0.4912560000000 1.0
C      1  0.4814000000000  0.5555430000000  0.5075110000000 1.0
C      1  0.4825920000000  0.4931480000000  0.4457990000000 1.0
C      1  0.4436460000000  0.4817930000000  0.4918920000000 1.0
C      1  0.4913840000000  0.4444210000000  0.4807900000000 1.0
C      1  0.5187120000000  0.4920790000000  0.5557120000000 1.0
C      1  0.4825060000000  0.5078760000000  0.5549860000000 1.0
C      1  0.5185290000000  0.5072690000000  0.4453660000000 1.0
C      1  0.5559610000000  0.4817210000000  0.5085670000000 1.0
C      1  0.4440790000000  0.5182690000000  0.5089600000000 1.0
C      1  0.5562270000000  0.5188280000000  0.4923380000000 1.0
C      1  0.5075650000000  0.4453650000000  0.5177760000000 1.0
C      1  0.4914770000000  0.5561010000000  0.5180130000000 1.0
C      1  0.5088340000000  0.5559540000000  0.4805860000000 1.0
C      1  0.5761390000000  0.4807240000000  0.4923780000000 1.0
C      1  0.4813670000000  0.4920520000000  0.5758770000000 1.0
C      1  0.4908230000000  0.5752880000000  0.4799060000000 1.0
C      1  0.4242370000000  0.4805110000000  0.5090300000000 1.0
C      1  0.4234700000000  0.5191850000000  0.4926530000000 1.0
C      1  0.5755390000000  0.5197390000000  0.5095130000000 1.0
C      1  0.5195480000000  0.4910730000000  0.4249400000000 1.0
C      1  0.5194200000000  0.5084230000000  0.5759480000000 1.0
C      1  0.4812890000000  0.5092520000000  0.4253480000000 1.0
C      1  0.5090430000000  0.5757110000000  0.5180370000000 1.0
C      1  0.5088810000000  0.4248360000000  0.4802430000000 1.0
C      1  0.4907220000000  0.4250450000000  0.5181600000000 1.0
C      1  0.4914100000000  0.4811390000000  0.5756500000000 1.0
C      1  0.5762930000000  0.4909740000000  0.4817920000000 1.0
C      1  0.4804710000000  0.5750820000000  0.4904550000000 1.0
C      1  0.5084770000000  0.4811130000000  0.4246120000000 1.0
C      1  0.4923110000000  0.5190790000000  0.4243500000000 1.0
C      1  0.5094130000000  0.5194680000000  0.5749980000000 1.0
C      1  0.4248250000000  0.4903440000000  0.5201630000000 1.0
C      1  0.5752850000000  0.5094170000000  0.5202040000000 1.0
C      1  0.4237880000000  0.5092830000000  0.4818630000000 1.0
C      1  0.5193880000000  0.5756290000000  0.5076710000000 1.0
C      1  0.4805270000000  0.4249020000000  0.5076130000000 1.0
C      1  0.5192950000000  0.4250590000000  0.4908440000000 1.0
C      1  0.4748460000000  0.5700360000000  0.5462600000000 1.0
C      1  0.5727170000000  0.5446230000000  0.4712080000000 1.0
C      1  0.5473220000000  0.4716760000000  0.5698030000000 1.0
C      1  0.5262320000000  0.5694860000000  0.4527440000000 1.0
C      1  0.5257350000000  0.4299420000000  0.5449660000000 1.0
C      1  0.4726560000000  0.4302180000000  0.4540010000000 1.0
C      1  0.4282860000000  0.5448020000000  0.5295060000000 1.0
C      1  0.4308460000000  0.4542880000000  0.4715230000000 1.0
C      1  0.5684290000000  0.4533850000000  0.5283520000000 1.0
C      1  0.4519680000000  0.4742430000000  0.4309000000000 1.0
C      1  0.4545820000000  0.5288770000000  0.5691620000000 1.0
C      1  0.5471800000000  0.5271140000000  0.4315990000000 1.0
C      1  0.5451790000000  0.5719110000000  0.4707120000000 1.0
C      1  0.4731940000000  0.5469050000000  0.5682030000000 1.0
C      1  0.5701710000000  0.4728460000000  0.5458620000000 1.0
C      1  0.4554930000000  0.5722270000000  0.5286120000000 1.0
C      1  0.5457250000000  0.4312210000000  0.5280420000000 1.0
C      1  0.4532700000000  0.4319940000000  0.4715570000000 1.0
C      1  0.5291130000000  0.5457310000000  0.4309510000000 1.0
C      1  0.4719140000000  0.4532490000000  0.4303070000000 1.0
C      1  0.5262500000000  0.4517330000000  0.5690100000000 1.0
C      1  0.4296310000000  0.4743860000000  0.4546680000000 1.0
C      1  0.5704880000000  0.5252980000000  0.4535590000000 1.0
C      1  0.4307580000000  0.5257190000000  0.5473720000000 1.0
C      1  0.4675390000000  0.4504680000000  0.4893630000000 1.0
C      1  0.4482680000000  0.4898350000000  0.4670340000000 1.0
C      1  0.4895820000000  0.4679680000000  0.4494900000000 1.0
C      1  0.5322700000000  0.4496140000000  0.5104410000000 1.0
C      1  0.5331780000000  0.5507670000000  0.4888220000000 1.0
C      1  0.4670800000000  0.5507290000000  0.5106200000000 1.0
C      1  0.5513600000000  0.4888660000000  0.5336010000000 1.0
C      1  0.5524750000000  0.5108320000000  0.4672280000000 1.0
C      1  0.4489490000000  0.5110600000000  0.5334940000000 1.0
C      1  0.5103190000000  0.4673860000000  0.5506310000000 1.0
C      1  0.5108590000000  0.5321390000000  0.4496010000000 1.0
C      1  0.4903730000000  0.5325990000000  0.5497170000000 1.0
C      1  0.4886870000000  0.4488210000000  0.4664830000000 1.0
C      1  0.4676210000000  0.4907350000000  0.4501000000000 1.0
C      1  0.4488240000000  0.4678510000000  0.4891290000000 1.0
C      1  0.5101230000000  0.4493540000000  0.5324270000000 1.0
C      1  0.4894170000000  0.5519270000000  0.5324740000000 1.0
C      1  0.5112530000000  0.5511570000000  0.4665720000000 1.0
C      1  0.5328390000000  0.4892230000000  0.5512570000000 1.0
C      1  0.4682170000000  0.5107830000000  0.5506210000000 1.0
C      1  0.5330690000000  0.5097670000000  0.4501400000000 1.0
C      1  0.5507290000000  0.4676350000000  0.5108750000000 1.0
C      1  0.4492630000000  0.5325890000000  0.5111250000000 1.0
C      1  0.5513280000000  0.5330270000000  0.4893040000000 1.0
C      1  0.4393750000000  0.5240470000000  0.4584360000000 1.0
C      1  0.5267150000000  0.4593200000000  0.4404710000000 1.0
C      1  0.4590780000000  0.4408670000000  0.5254850000000 1.0
C      1  0.5587170000000  0.5274890000000  0.5438090000000 1.0
C      1  0.5610950000000  0.4755730000000  0.4578490000000 1.0
C      1  0.4407160000000  0.4724130000000  0.5447610000000 1.0
C      1  0.4762010000000  0.4577450000000  0.5601490000000 1.0
C      1  0.4725910000000  0.5412110000000  0.4395310000000 1.0
C      1  0.5235650000000  0.5424730000000  0.5592650000000 1.0
C      1  0.5443680000000  0.4403960000000  0.4718940000000 1.0
C      1  0.5420120000000  0.5600090000000  0.5261720000000 1.0
C      1  0.4560430000000  0.5586510000000  0.4727500000000 1.0
C      1  0.4580210000000  0.5233660000000  0.4408930000000 1.0
C      1  0.4409210000000  0.4565210000000  0.5279450000000 1.0
C      1  0.5281080000000  0.4410060000000  0.4558400000000 1.0
C      1  0.5412830000000  0.5272120000000  0.5603120000000 1.0
C      1  0.4584550000000  0.4725690000000  0.5610960000000 1.0
C      1  0.5421940000000  0.4767770000000  0.4407740000000 1.0
C      1  0.5612000000000  0.4575850000000  0.4731160000000 1.0
C      1  0.4391900000000  0.5419470000000  0.4736300000000 1.0
C      1  0.5592010000000  0.5434940000000  0.5274210000000 1.0
C      1  0.4768290000000  0.4408750000000  0.5408610000000 1.0
C      1  0.5244470000000  0.5607000000000  0.5415410000000 1.0
C      1  0.4716710000000  0.5591330000000  0.4556400000000 1.0
C      1  0.4624850000000  0.4229590000000  0.4889080000000 1.0
C      1  0.4213250000000  0.4913850000000  0.4635970000000 1.0
C      1  0.4887190000000  0.4640530000000  0.4224710000000 1.0
C      1  0.5367100000000  0.4226640000000  0.5103500000000 1.0
C      1  0.5363020000000  0.5783940000000  0.4887330000000 1.0
C      1  0.4640990000000  0.5781020000000  0.5102180000000 1.0
C      1  0.5783840000000  0.4902560000000  0.5372790000000 1.0
C      1  0.5791610000000  0.5084230000000  0.4629540000000 1.0
C      1  0.4220130000000  0.5085920000000  0.5382010000000 1.0
C      1  0.5096930000000  0.4625510000000  0.5771790000000 1.0
C      1  0.5116640000000  0.5365350000000  0.4223120000000 1.0
C      1  0.4907710000000  0.5377820000000  0.5767060000000 1.0
C      1  0.4899660000000  0.4219860000000  0.4627370000000 1.0
C      1  0.4630780000000  0.4909030000000  0.4232920000000 1.0
C      1  0.4219840000000  0.4629730000000  0.4892190000000 1.0
C      1  0.5085670000000  0.4220080000000  0.5359750000000 1.0
C      1  0.4916430000000  0.5787340000000  0.5368470000000 1.0
C      1  0.5090860000000  0.5782410000000  0.4618870000000 1.0
C      1  0.5366920000000  0.4884370000000  0.5780280000000 1.0
C      1  0.4639820000000  0.5114900000000  0.5777510000000 1.0
C      1  0.5379920000000  0.5095700000000  0.4231150000000 1.0
C      1  0.5777020000000  0.4625460000000  0.5110560000000 1.0
C      1  0.4215530000000  0.5360070000000  0.5115620000000 1.0
C      1  0.5787300000000  0.5360790000000  0.4895710000000 1.0
C      1  0.4868970000000  0.4764720000000  0.5432440000000 1.0
C      1  0.4750320000000  0.5424370000000  0.4857130000000 1.0
C      1  0.5444450000000  0.4869000000000  0.4762520000000 1.0
C      1  0.5143620000000  0.4755270000000  0.4603080000000 1.0
C      1  0.5132910000000  0.5250780000000  0.5398860000000 1.0
C      1  0.4862290000000  0.5249340000000  0.4582410000000 1.0
C      1  0.5248860000000  0.5421620000000  0.5131140000000 1.0
C      1  0.5258470000000  0.4568220000000  0.4855870000000 1.0
C      1  0.4754350000000  0.4605790000000  0.5136000000000 1.0
C      1  0.4567350000000  0.4863430000000  0.5260050000000 1.0
C      1  0.4569970000000  0.5135470000000  0.4766290000000 1.0
C      1  0.5419070000000  0.5132550000000  0.5254590000000 1.0
C      1  0.5440950000000  0.4751990000000  0.4862100000000 1.0
C      1  0.4859510000000  0.5453580000000  0.4746580000000 1.0
C      1  0.4752030000000  0.4862010000000  0.5432220000000 1.0
C      1  0.4559350000000  0.4762030000000  0.5144500000000 1.0
C      1  0.5426960000000  0.5244200000000  0.5146650000000 1.0
C      1  0.4530020000000  0.5234440000000  0.4868670000000 1.0
C      1  0.5135360000000  0.5433260000000  0.5233160000000 1.0
C      1  0.4869570000000  0.4610020000000  0.5242760000000 1.0
C      1  0.5144200000000  0.4562830000000  0.4753270000000 1.0
C      1  0.5252220000000  0.4866590000000  0.4607720000000 1.0
C      1  0.4756500000000  0.5138810000000  0.4609600000000 1.0
C      1  0.5240440000000  0.5143920000000  0.5422490000000 1.0
C      1  0.5118320000000  0.4305790000000  0.5473550000000 1.0
C      1  0.4298340000000  0.5476150000000  0.5155790000000 1.0
C      1  0.5491660000000  0.5128310000000  0.4321380000000 1.0
C      1  0.4864530000000  0.4303330000000  0.4510690000000 1.0
C      1  0.4888010000000  0.5699850000000  0.5484110000000 1.0
C      1  0.5122860000000  0.5696020000000  0.4502590000000 1.0
C      1  0.5707820000000  0.5477460000000  0.4849830000000 1.0
C      1  0.5688360000000  0.4511140000000  0.5142220000000 1.0
C      1  0.4307080000000  0.4515820000000  0.4855530000000 1.0
C      1  0.4523170000000  0.5147150000000  0.5691530000000 1.0
C      1  0.4512760000000  0.4883750000000  0.4316940000000 1.0
C      1  0.5488680000000  0.4857760000000  0.5700370000000 1.0
C      1  0.5482760000000  0.4311540000000  0.5139920000000 1.0
C      1  0.5149690000000  0.5480520000000  0.4310130000000 1.0
C      1  0.4306690000000  0.5117350000000  0.5498300000000 1.0
C      1  0.4512370000000  0.4319110000000  0.4856920000000 1.0
C      1  0.5480340000000  0.5702970000000  0.4845960000000 1.0
C      1  0.4523730000000  0.5702370000000  0.5148410000000 1.0
C      1  0.4874630000000  0.5488530000000  0.5675270000000 1.0
C      1  0.5120680000000  0.4508170000000  0.5685900000000 1.0
C      1  0.4860160000000  0.4519310000000  0.4304740000000 1.0
C      1  0.5704770000000  0.5113320000000  0.4513610000000 1.0
C      1  0.4299550000000  0.4883060000000  0.4521200000000 1.0
C      1  0.5701000000000  0.4866150000000  0.5489070000000 1.0
C      1  0.4532110000000  0.4594120000000  0.5598660000000 1.0
C      1  0.4589300000000  0.5570050000000  0.4497470000000 1.0
C      1  0.5601970000000  0.4526650000000  0.4596970000000 1.0
C      1  0.5495570000000  0.4636530000000  0.4406930000000 1.0
C      1  0.5467770000000  0.5403400000000  0.5594500000000 1.0
C      1  0.4501860000000  0.5363410000000  0.4410220000000 1.0
C      1  0.5372440000000  0.5597240000000  0.5489410000000 1.0
C      1  0.5406720000000  0.4430600000000  0.4494850000000 1.0
C      1  0.4639330000000  0.4405980000000  0.5485370000000 1.0
C      1  0.4432890000000  0.4498340000000  0.5402760000000 1.0
C      1  0.4399110000000  0.5469830000000  0.4603380000000 1.0
C      1  0.5574510000000  0.5500250000000  0.5400360000000 1.0
C      1  0.5598720000000  0.4628570000000  0.4504270000000 1.0
C      1  0.4496380000000  0.5569990000000  0.4599720000000 1.0
C      1  0.4633940000000  0.4501890000000  0.5590370000000 1.0
C      1  0.4429400000000  0.4592890000000  0.5503480000000 1.0
C      1  0.5570380000000  0.5403660000000  0.5498600000000 1.0
C      1  0.4400560000000  0.5368370000000  0.4509350000000 1.0
C      1  0.5472320000000  0.5595840000000  0.5394630000000 1.0
C      1  0.4539180000000  0.4406970000000  0.5391160000000 1.0
C      1  0.5505230000000  0.4425310000000  0.4591980000000 1.0
C      1  0.5399980000000  0.4538070000000  0.4404680000000 1.0
C      1  0.4593760000000  0.5465220000000  0.4403430000000 1.0
C      1  0.5367490000000  0.5497340000000  0.5589470000000 1.0
C      1  0.4559080000000  0.4768060000000  0.4986690000000 1.0
C      1  0.4771700000000  0.4989930000000  0.4582550000000 1.0
C      1  0.4984210000000  0.4562490000000  0.4755290000000 1.0
C      1  0.5436760000000  0.4767640000000  0.5012240000000 1.0
C      1  0.5439010000000  0.5240770000000  0.4989350000000 1.0
C      1  0.4561150000000  0.5231820000000  0.5013850000000 1.0
C      1  0.5238050000000  0.4987750000000  0.5434930000000 1.0
C      1  0.5235590000000  0.5013790000000  0.4579730000000 1.0
C      1  0.4769140000000  0.5010950000000  0.5427870000000 1.0
C      1  0.5020000000000  0.4581960000000  0.5229340000000 1.0
C      1  0.5018550000000  0.5433810000000  0.4758820000000 1.0
C      1  0.4978070000000  0.5436540000000  0.5232410000000 1.0
C      1  0.4992130000000  0.4767150000000  0.4576260000000 1.0
C      1  0.4561900000000  0.4979590000000  0.4764220000000 1.0
C      1  0.4769090000000  0.4578570000000  0.4985290000000 1.0
C      1  0.5020380000000  0.4771980000000  0.5434090000000 1.0
C      1  0.4987210000000  0.5229370000000  0.5419630000000 1.0
C      1  0.5013810000000  0.5228950000000  0.4569110000000 1.0
C      1  0.5434360000000  0.4979440000000  0.5243400000000 1.0
C      1  0.4570500000000  0.5016100000000  0.5243730000000 1.0
C      1  0.5445550000000  0.5025060000000  0.4765900000000 1.0
C      1  0.5237960000000  0.4572610000000  0.5006080000000 1.0
C      1  0.4759510000000  0.5432970000000  0.5010630000000 1.0
C      1  0.5239260000000  0.5432610000000  0.4981340000000 1.0
C      1  0.4927800000000  0.4694880000000  0.4807110000000 1.0
C      1  0.4692100000000  0.4814260000000  0.4922710000000 1.0
C      1  0.4809010000000  0.4912300000000  0.4702870000000 1.0
C      1  0.5094750000000  0.4702390000000  0.5186350000000 1.0
C      1  0.5084320000000  0.5304290000000  0.4808700000000 1.0
C      1  0.4915190000000  0.5302750000000  0.5186810000000 1.0
C      1  0.5306750000000  0.4812980000000  0.5074540000000 1.0
C      1  0.5308570000000  0.5196020000000  0.4921960000000 1.0
C      1  0.4694810000000  0.5187360000000  0.5078910000000 1.0
C      1  0.5196150000000  0.4920920000000  0.5302070000000 1.0
C      1  0.5196170000000  0.5090090000000  0.4700680000000 1.0
C      1  0.4811960000000  0.5074580000000  0.5294590000000 1.0
C      1  0.4821300000000  0.4699940000000  0.4915570000000 1.0
C      1  0.4918460000000  0.4807070000000  0.4699340000000 1.0
C      1  0.4693600000000  0.4918060000000  0.4811730000000 1.0
C      1  0.5198550000000  0.4704370000000  0.5072200000000 1.0
C      1  0.4808670000000  0.5301490000000  0.5073780000000 1.0
C      1  0.5194060000000  0.5308240000000  0.4914210000000 1.0
C      1  0.5084540000000  0.4814990000000  0.5299150000000 1.0
C      1  0.4915870000000  0.5185630000000  0.5297020000000 1.0
C      1  0.5082530000000  0.5192830000000  0.4700960000000 1.0
C      1  0.5310760000000  0.4913140000000  0.5189990000000 1.0
C      1  0.4700250000000  0.5078650000000  0.5190010000000 1.0
C      1  0.5310900000000  0.5085580000000  0.4813060000000 1.0
C      1  0.4342300000000  0.4561360000000  0.5059660000000 1.0
C      1  0.4569650000000  0.5088200000000  0.4350000000000 1.0
C      1  0.5062690000000  0.4347320000000  0.4554090000000 1.0
C      1  0.5656700000000  0.4562810000000  0.4940110000000 1.0
C      1  0.5662330000000  0.5446620000000  0.5055420000000 1.0
C      1  0.4335560000000  0.5440720000000  0.4950460000000 1.0
C      1  0.5438750000000  0.5056440000000  0.5664460000000 1.0
C      1  0.5436340000000  0.4918260000000  0.4349120000000 1.0
C      1  0.4568470000000  0.4942920000000  0.5664500000000 1.0
C      1  0.4913190000000  0.4345660000000  0.5421950000000 1.0
C      1  0.4931220000000  0.5648360000000  0.4554070000000 1.0
C      1  0.5086630000000  0.5660840000000  0.5422250000000 1.0
C      1  0.5057900000000  0.4567720000000  0.4341590000000 1.0
C      1  0.4334910000000  0.5086630000000  0.4573830000000 1.0
C      1  0.4565050000000  0.4351860000000  0.5059090000000 1.0
C      1  0.4919190000000  0.4568720000000  0.5654160000000 1.0
C      1  0.5084100000000  0.5435260000000  0.5649480000000 1.0
C      1  0.4944420000000  0.5435730000000  0.4338190000000 1.0
C      1  0.5655360000000  0.5063990000000  0.5448920000000 1.0
C      1  0.4354590000000  0.4928160000000  0.5447310000000 1.0
C      1  0.5665370000000  0.4914930000000  0.4573500000000 1.0
C      1  0.5440910000000  0.4346780000000  0.4936580000000 1.0
C      1  0.4553830000000  0.5656100000000  0.4943310000000 1.0
C      1  0.5442950000000  0.5660890000000  0.5050540000000 1.0
C      1  0.5060720000000  0.5456360000000  0.4428750000000 1.0
C      1  0.5458440000000  0.4433540000000  0.5056340000000 1.0
C      1  0.4436160000000  0.5050400000000  0.5465590000000 1.0
C      1  0.4961940000000  0.5458970000000  0.5556720000000 1.0
C      1  0.4940110000000  0.4543840000000  0.4428410000000 1.0
C      1  0.5041360000000  0.4541570000000  0.5562980000000 1.0
C      1  0.4541580000000  0.4439310000000  0.4940080000000 1.0
C      1  0.4534880000000  0.5574590000000  0.5067430000000 1.0
C      1  0.5466280000000  0.5576800000000  0.4928950000000 1.0
C      1  0.5578320000000  0.5039310000000  0.4546590000000 1.0
C      1  0.5573590000000  0.4942570000000  0.5467320000000 1.0
C      1  0.4424640000000  0.4963900000000  0.4546410000000 1.0
C      1  0.4423400000000  0.5460860000000  0.5070820000000 1.0
C      1  0.5038500000000  0.4432200000000  0.5449680000000 1.0
C      1  0.5463500000000  0.5040960000000  0.4440100000000 1.0
C      1  0.5580820000000  0.5466210000000  0.4931620000000 1.0
C      1  0.4428340000000  0.4543270000000  0.4939390000000 1.0
C      1  0.5568160000000  0.4541690000000  0.5058550000000 1.0
C      1  0.4941420000000  0.4429460000000  0.4534160000000 1.0
C      1  0.5053600000000  0.5567710000000  0.4534980000000 1.0
C      1  0.4962430000000  0.5573690000000  0.5450290000000 1.0
C      1  0.4547460000000  0.5058440000000  0.5572490000000 1.0
C      1  0.5463600000000  0.4938820000000  0.5577310000000 1.0
C      1  0.4542080000000  0.4964630000000  0.4439600000000 1.0
C      1  0.5048530000000  0.5766030000000  0.5322990000000 1.0
C      1  0.5759200000000  0.5336520000000  0.5034050000000 1.0
C      1  0.5333410000000  0.5023450000000  0.5761870000000 1.0
C      1  0.4956130000000  0.5752600000000  0.4656690000000 1.0
C      1  0.4950790000000  0.4238660000000  0.5322020000000 1.0
C      1  0.5035900000000  0.4247780000000  0.4660600000000 1.0
C      1  0.4237090000000  0.5332300000000  0.4977660000000 1.0
C      1  0.4241700000000  0.4664380000000  0.5030740000000 1.0
C      1  0.5758200000000  0.4664840000000  0.4973640000000 1.0
C      1  0.4671340000000  0.5045390000000  0.4246540000000 1.0
C      1  0.4673930000000  0.4976770000000  0.5761540000000 1.0
C      1  0.5338230000000  0.4959600000000  0.4243470000000 1.0
C      1  0.5334090000000  0.5758950000000  0.5024780000000 1.0
C      1  0.5043940000000  0.5336890000000  0.5755000000000 1.0
C      1  0.5755300000000  0.5039440000000  0.5342360000000 1.0
C      1  0.4665370000000  0.5752550000000  0.4964010000000 1.0
C      1  0.5333940000000  0.4249160000000  0.4965030000000 1.0
C      1  0.4664170000000  0.4247500000000  0.5026230000000 1.0
C      1  0.4978320000000  0.5331010000000  0.4240270000000 1.0
C      1  0.5026160000000  0.4673120000000  0.4243140000000 1.0
C      1  0.4961440000000  0.4668120000000  0.5757870000000 1.0
C      1  0.4231050000000  0.5048390000000  0.4675970000000 1.0
C      1  0.5769580000000  0.4951670000000  0.4674370000000 1.0
C      1  0.4249750000000  0.4951300000000  0.5344290000000 1.0
C      1  0.4510970000000  0.4419650000000  0.4614990000000 1.0
C      1  0.4420530000000  0.4661120000000  0.4543440000000 1.0
C      1  0.4631800000000  0.4469970000000  0.4397020000000 1.0
C      1  0.5479510000000  0.4410850000000  0.5381830000000 1.0
C      1  0.5465370000000  0.5634010000000  0.4595150000000 1.0
C      1  0.4544160000000  0.5639800000000  0.5400430000000 1.0
C      1  0.5574750000000  0.4648360000000  0.5457850000000 1.0
C      1  0.5579600000000  0.5337610000000  0.4534190000000 1.0
C      1  0.4433990000000  0.5342210000000  0.5470770000000 1.0
C      1  0.5354550000000  0.4459050000000  0.5598860000000 1.0
C      1  0.5390250000000  0.5479290000000  0.4408640000000 1.0
C      1  0.4626810000000  0.5489230000000  0.5587920000000 1.0
C      1  0.4647350000000  0.4429460000000  0.4541330000000 1.0
C      1  0.4459060000000  0.4649250000000  0.4397950000000 1.0
C      1  0.4408690000000  0.4522740000000  0.4614990000000 1.0
C      1  0.5341250000000  0.4422460000000  0.5452910000000 1.0
C      1  0.4664310000000  0.5575180000000  0.5463950000000 1.0
C      1  0.5346470000000  0.5568360000000  0.4529810000000 1.0
C      1  0.5534430000000  0.4630610000000  0.5602150000000 1.0
C      1  0.4523380000000  0.5386810000000  0.5591580000000 1.0
C      1  0.5492750000000  0.5375680000000  0.4410750000000 1.0
C      1  0.5583760000000  0.4512130000000  0.5383200000000 1.0
C      1  0.4368170000000  0.5461270000000  0.5406510000000 1.0
C      1  0.5643940000000  0.5457680000000  0.4598280000000 1.0
C      1  0.5110330000000  0.4344120000000  0.4992780000000 1.0
C      1  0.4337430000000  0.4995430000000  0.5122280000000 1.0
C      1  0.5007720000000  0.5111800000000  0.4338260000000 1.0
C      1  0.4885490000000  0.4344470000000  0.4994190000000 1.0
C      1  0.4887390000000  0.5658200000000  0.4989380000000 1.0
C      1  0.5114270000000  0.5662070000000  0.4992210000000 1.0
C      1  0.5668990000000  0.4999710000000  0.4893910000000 1.0
C      1  0.5663630000000  0.5004110000000  0.5121440000000 1.0
C      1  0.4334570000000  0.5006140000000  0.4893600000000 1.0
C      1  0.5009880000000  0.5114990000000  0.5655990000000 1.0
C      1  0.5002920000000  0.4890260000000  0.4343010000000 1.0
C      1  0.5001880000000  0.4888860000000  0.5663480000000 1.0
C      1  0.4994220000000  0.4347210000000  0.5107000000000 1.0
C      1  0.5118400000000  0.4996370000000  0.4343220000000 1.0
C      1  0.4330520000000  0.5112050000000  0.5011630000000 1.0
C      1  0.4998440000000  0.4339610000000  0.4880850000000 1.0
C      1  0.5000340000000  0.5662680000000  0.4877940000000 1.0
C      1  0.5002200000000  0.5661600000000  0.5104210000000 1.0
C      1  0.4893020000000  0.5001310000000  0.5660770000000 1.0
C      1  0.5116300000000  0.5000950000000  0.5663870000000 1.0
C      1  0.4892010000000  0.5006510000000  0.4346420000000 1.0
C      1  0.5665470000000  0.5115330000000  0.5008010000000 1.0
C      1  0.4333460000000  0.4888920000000  0.5005310000000 1.0
C      1  0.5666970000000  0.4889070000000  0.5006520000000 1.0
C      1  0.5345730000000  0.5437890000000  0.4759950000000 1.0
C      1  0.5460250000000  0.4744560000000  0.5362410000000 1.0
C      1  0.4771390000000  0.5336630000000  0.5434760000000 1.0
C      1  0.4662420000000  0.5439230000000  0.5236320000000 1.0
C      1  0.4664080000000  0.4574090000000  0.4763610000000 1.0
C      1  0.5332440000000  0.4567360000000  0.5232850000000 1.0
C      1  0.4536300000000  0.4754280000000  0.4638490000000 1.0
C      1  0.4542070000000  0.5254610000000  0.5361890000000 1.0
C      1  0.5469650000000  0.5251310000000  0.4641130000000 1.0
C      1  0.5238770000000  0.5330550000000  0.4563130000000 1.0
C      1  0.5234570000000  0.4662750000000  0.5443090000000 1.0
C      1  0.4762140000000  0.4670500000000  0.4555080000000 1.0
C      1  0.4750600000000  0.5465130000000  0.5356920000000 1.0
C      1  0.5335580000000  0.4761630000000  0.5445370000000 1.0
C      1  0.5444340000000  0.5338600000000  0.4762630000000 1.0
C      1  0.5257530000000  0.5459460000000  0.4638140000000 1.0
C      1  0.4743860000000  0.4544910000000  0.4637640000000 1.0
C      1  0.5248570000000  0.4539810000000  0.5357080000000 1.0
C      1  0.4662490000000  0.4771860000000  0.4555880000000 1.0
C      1  0.5340730000000  0.5231040000000  0.4563060000000 1.0
C      1  0.4671940000000  0.5235960000000  0.5436680000000 1.0
C      1  0.4563890000000  0.5340300000000  0.5238790000000 1.0
C      1  0.5433150000000  0.4664820000000  0.5235380000000 1.0
C      1  0.4563770000000  0.4672310000000  0.4763890000000 1.0
C      1  0.5210840000000  0.4909510000000  0.4992260000000 1.0
C      1  0.4910770000000  0.4994640000000  0.5195740000000 1.0
C      1  0.5001100000000  0.5204940000000  0.4909130000000 1.0
C      1  0.4765680000000  0.4856210000000  0.5051900000000 1.0
C      1  0.4786780000000  0.5098430000000  0.4988300000000 1.0
C      1  0.5230020000000  0.5153490000000  0.5043520000000 1.0
C      1  0.5110860000000  0.4999000000000  0.4790010000000 1.0
C      1  0.5156720000000  0.5042580000000  0.5224360000000 1.0
C      1  0.4899220000000  0.5000490000000  0.4798790000000 1.0
C      1  0.5041960000000  0.5229550000000  0.5147850000000 1.0
C      1  0.5056130000000  0.4769960000000  0.4851800000000 1.0
C      1  0.5000620000000  0.4791760000000  0.5091710000000 1.0
C      1  0.4959190000000  0.4857020000000  0.5220370000000 1.0
C      1  0.5236820000000  0.4956870000000  0.4855300000000 1.0
C      1  0.4862770000000  0.5224880000000  0.4951700000000 1.0
C      1  0.5006810000000  0.4896060000000  0.4788410000000 1.0
C      1  0.5005200000000  0.5103390000000  0.4802770000000 1.0
C      1  0.5017630000000  0.5096140000000  0.5208580000000 1.0
C      1  0.4799270000000  0.4995890000000  0.5094480000000 1.0
C      1  0.5220220000000  0.5014850000000  0.5093860000000 1.0
C      1  0.4769350000000  0.5042410000000  0.4855380000000 1.0
C      1  0.5100500000000  0.5217080000000  0.5013740000000 1.0
C      1  0.4883060000000  0.4782340000000  0.5018550000000 1.0
C      1  0.5106410000000  0.4801570000000  0.4990490000000 1.0
C      1  0.5231900000000  0.4209990000000  0.5336530000000 1.0
C      1  0.4203540000000  0.5327720000000  0.5257880000000 1.0
C      1  0.5358720000000  0.5240150000000  0.4224180000000 1.0
C      1  0.4754480000000  0.4214050000000  0.4654050000000 1.0
C      1  0.4772080000000  0.5789220000000  0.5346560000000 1.0
C      1  0.5234340000000  0.5782360000000  0.4643730000000 1.0
C      1  0.5804550000000  0.5325800000000  0.4753810000000 1.0
C      1  0.5774820000000  0.4650940000000  0.5253690000000 1.0
C      1  0.4218790000000  0.4659570000000  0.4749460000000 1.0
C      1  0.4663020000000  0.5258590000000  0.5779340000000 1.0
C      1  0.4643550000000  0.4762180000000  0.4227510000000 1.0
C      1  0.5345940000000  0.4738970000000  0.5774580000000 1.0
C      1  0.5339320000000  0.4223750000000  0.5246450000000 1.0
C      1  0.5260190000000  0.5340790000000  0.4221210000000 1.0
C      1  0.4220160000000  0.5229830000000  0.5357670000000 1.0
C      1  0.4648350000000  0.4227790000000  0.4745310000000 1.0
C      1  0.5331100000000  0.5797470000000  0.4744870000000 1.0
C      1  0.4675330000000  0.5799280000000  0.5244220000000 1.0
C      1  0.4763380000000  0.5357190000000  0.5775170000000 1.0
C      1  0.5243580000000  0.4640450000000  0.5772580000000 1.0
C      1  0.4741620000000  0.4659180000000  0.4225460000000 1.0
C      1  0.5793290000000  0.5228740000000  0.4651890000000 1.0
C      1  0.4205790000000  0.4767050000000  0.4659350000000 1.0
C      1  0.5788830000000  0.4757500000000  0.5344270000000 1.0
C      1  0.4655630000000  0.4547880000000  0.5244660000000 1.0
C      1  0.4532480000000  0.5235560000000  0.4651350000000 1.0
C      1  0.5252610000000  0.4656670000000  0.4544000000000 1.0
C      1  0.5365530000000  0.4537130000000  0.4745200000000 1.0
C      1  0.5350030000000  0.5464560000000  0.5243940000000 1.0
C      1  0.4638520000000  0.5454530000000  0.4752230000000 1.0
C      1  0.5456340000000  0.5249410000000  0.5361060000000 1.0
C      1  0.5475720000000  0.4764700000000  0.4648780000000 1.0
C      1  0.4537770000000  0.4749470000000  0.5365850000000 1.0
C      1  0.4767670000000  0.4649280000000  0.5466120000000 1.0
C      1  0.4747210000000  0.5345700000000  0.4534080000000 1.0
C      1  0.5232570000000  0.5358330000000  0.5453490000000 1.0
C      1  0.5256660000000  0.4537090000000  0.4640750000000 1.0
C      1  0.4645460000000  0.5233230000000  0.4549230000000 1.0
C      1  0.4536160000000  0.4646850000000  0.5254360000000 1.0
C      1  0.4769960000000  0.4551180000000  0.5348370000000 1.0
C      1  0.5236810000000  0.5469410000000  0.5347090000000 1.0
C      1  0.4742060000000  0.5463200000000  0.4639600000000 1.0
C      1  0.5343880000000  0.5252670000000  0.5466310000000 1.0
C      1  0.4652580000000  0.4749410000000  0.5472570000000 1.0
C      1  0.5358200000000  0.4768320000000  0.4549110000000 1.0
C      1  0.5476630000000  0.4649840000000  0.4749710000000 1.0
C      1  0.4525770000000  0.5345380000000  0.4758830000000 1.0
C      1  0.5460650000000  0.5355700000000  0.5252560000000 1.0
C      1  0.5167800000000  0.4498050000000  0.4381160000000 1.0
C      1  0.4487130000000  0.4387570000000  0.5164090000000 1.0
C      1  0.4355450000000  0.5172100000000  0.4464680000000 1.0
C      1  0.4833470000000  0.4459060000000  0.5636500000000 1.0
C      1  0.4830040000000  0.5502780000000  0.4374210000000 1.0
C      1  0.5169040000000  0.5545750000000  0.5631940000000 1.0
C      1  0.5522420000000  0.4379580000000  0.4829500000000 1.0
C      1  0.5512960000000  0.5619730000000  0.5160270000000 1.0
C      1  0.4478560000000  0.5614040000000  0.4835910000000 1.0
C      1  0.5611680000000  0.5170570000000  0.5524480000000 1.0
C      1  0.5647620000000  0.4830960000000  0.4463220000000 1.0
C      1  0.4387170000000  0.4827420000000  0.5536260000000 1.0
C      1  0.4381690000000  0.4487290000000  0.5168970000000 1.0
C      1  0.5170720000000  0.4388400000000  0.4478520000000 1.0
C      1  0.4456360000000  0.5172880000000  0.4365630000000 1.0
C      1  0.5626890000000  0.4482640000000  0.4832950000000 1.0
C      1  0.4373020000000  0.5511890000000  0.4839430000000 1.0
C      1  0.5616260000000  0.5516060000000  0.5164450000000 1.0
C      1  0.4827960000000  0.4362530000000  0.5533290000000 1.0
C      1  0.5170810000000  0.5645290000000  0.5532250000000 1.0
C      1  0.4825570000000  0.5610640000000  0.4473510000000 1.0
C      1  0.5504710000000  0.5169190000000  0.5625040000000 1.0
C      1  0.4495730000000  0.4830080000000  0.5634290000000 1.0
C      1  0.5544860000000  0.4830780000000  0.4366100000000 1.0
C      1  0.5289930000000  0.4720650000000  0.4821430000000 1.0
C      1  0.4787930000000  0.5273370000000  0.4831070000000 1.0
C      1  0.5295110000000  0.4859070000000  0.4759530000000 1.0
C      1  0.5260480000000  0.5143390000000  0.5272740000000 1.0
C      1  0.4860340000000  0.4762390000000  0.5282470000000 1.0
C      1  0.4870550000000  0.5313200000000  0.4715950000000 1.0
C      1  0.5143570000000  0.5284250000000  0.5241230000000 1.0
C      1  0.5271120000000  0.5247480000000  0.5156340000000 1.0
C      1  0.4709610000000  0.4760130000000  0.5148770000000 1.0
C      1  0.4720490000000  0.4825730000000  0.5283060000000 1.0
C      1  0.4720650000000  0.5150720000000  0.4764610000000 1.0
C      1  0.5152960000000  0.4712830000000  0.4755840000000 1.0
C      1  0.4429760000000  0.5577030000000  0.5416350000000 1.0
C      1  0.5581110000000  0.5572430000000  0.4584540000000 1.0
C      1  0.5470650000000  0.4517120000000  0.5621210000000 1.0
C      1  0.4519770000000  0.4534880000000  0.4374640000000 1.0
END
