TITL C-3151192-8964-134 -6.45917048245399 1000000 -1628.79611802271 0 0 240 (Td) n - 1
REM
REM in /scratch/bkarasulu/Only-C240/Try4-Only-SYMOP24
REM
REM
REM
REM
REM
REM ./C.cell (018bbde761a0794ceee8127bb1f748ef)
REM
REM compiler GCC version 9.2.1 20190827 (Red Hat 9.2.1-1)
REM options -cpp -mtune=generic -march=x86-64 -g -O0 -fpre-include=/usr/include/finclude/math-vector-fortran.h
REM seed -47112272 905305007 1402483365 398046497 342776210 -1279936643 1452362966 -1641212588 -765769350 1475900959 -1581016580 -996385373 -1624777678 259224381 1412136842 1503586339 -2055311347 -1707921999 -513628940 -789475615 -2083999197 -1833685698 -977653173 640338245 -684138765 -1281480257 255831428 1642086789 2021688308 1173910881 -1607159844 213820913 1066257018
REM
CELL 1.54180  100.00000  100.00000  100.00000   90.00000   90.00000   90.00000
LATT -1
SFAC C  
C      1  0.4632530000000  0.5140200000000  0.4962880000000 1.0
C      1  0.4962870000000  0.4632530000000  0.5140220000000 1.0
C      1  0.5140180000000  0.4962850000000  0.4632520000000 1.0
C      1  0.4632490000000  0.4859890000000  0.5037070000000 1.0
C      1  0.5367480000000  0.4859790000000  0.4962970000000 1.0
C      1  0.5367510000000  0.5140120000000  0.5037080000000 1.0
C      1  0.4962980000000  0.5367480000000  0.4859780000000 1.0
C      1  0.5037110000000  0.5367510000000  0.5140100000000 1.0
C      1  0.5037040000000  0.4632480000000  0.4859900000000 1.0
C      1  0.5140140000000  0.5037120000000  0.5367500000000 1.0
C      1  0.4859870000000  0.5037030000000  0.4632490000000 1.0
C      1  0.4859810000000  0.4963000000000  0.5367490000000 1.0
C      1  0.4632490000000  0.4963000000000  0.5140140000000 1.0
C      1  0.4962970000000  0.5140100000000  0.4632480000000 1.0
C      1  0.5140110000000  0.4632480000000  0.4963000000000 1.0
C      1  0.4632520000000  0.5037100000000  0.4859810000000 1.0
C      1  0.5367500000000  0.4962860000000  0.4859870000000 1.0
C      1  0.5367490000000  0.5037050000000  0.5140180000000 1.0
C      1  0.4962880000000  0.4859910000000  0.5367520000000 1.0
C      1  0.5037070000000  0.5140220000000  0.5367470000000 1.0
C      1  0.5037080000000  0.4859770000000  0.4632530000000 1.0
C      1  0.5140200000000  0.5367480000000  0.5037020000000 1.0
C      1  0.4859790000000  0.4632530000000  0.5037130000000 1.0
C      1  0.4859890000000  0.5367510000000  0.4962850000000 1.0
C      1  0.5546520000000  0.4899710000000  0.5290100000000 1.0
C      1  0.5290120000000  0.5546500000000  0.4899660000000 1.0
C      1  0.4899730000000  0.5290150000000  0.5546500000000 1.0
C      1  0.5546580000000  0.5100150000000  0.4709980000000 1.0
C      1  0.4453440000000  0.5100390000000  0.5289990000000 1.0
C      1  0.4453450000000  0.4899750000000  0.4709940000000 1.0
C      1  0.5289970000000  0.4453430000000  0.5100380000000 1.0
C      1  0.4709900000000  0.4453470000000  0.4899800000000 1.0
C      1  0.4710020000000  0.5546610000000  0.5100160000000 1.0
C      1  0.4899730000000  0.4709880000000  0.4453490000000 1.0
C      1  0.5100200000000  0.4710040000000  0.5546610000000 1.0
C      1  0.5100350000000  0.5289940000000  0.4453410000000 1.0
C      1  0.5546600000000  0.5289960000000  0.4899720000000 1.0
C      1  0.5289990000000  0.4899780000000  0.5546590000000 1.0
C      1  0.4899780000000  0.5546610000000  0.5289940000000 1.0
C      1  0.5546510000000  0.4709910000000  0.5100360000000 1.0
C      1  0.4453480000000  0.5290130000000  0.5100190000000 1.0
C      1  0.4453420000000  0.4710010000000  0.4899740000000 1.0
C      1  0.5290090000000  0.5100140000000  0.4453450000000 1.0
C      1  0.4709980000000  0.4899670000000  0.4453450000000 1.0
C      1  0.4709930000000  0.5100400000000  0.5546520000000 1.0
C      1  0.4899680000000  0.4453410000000  0.4710040000000 1.0
C      1  0.5100360000000  0.5546490000000  0.4709870000000 1.0
C      1  0.5100180000000  0.4453480000000  0.5290140000000 1.0
C      1  0.4844420000000  0.4952460000000  0.4491610000000 1.0
C      1  0.4491590000000  0.4844450000000  0.4952520000000 1.0
C      1  0.4952470000000  0.4491590000000  0.4844470000000 1.0
C      1  0.4844360000000  0.5047580000000  0.5508370000000 1.0
C      1  0.5155650000000  0.5047370000000  0.4491610000000 1.0
C      1  0.5155570000000  0.4952590000000  0.5508410000000 1.0
C      1  0.4491620000000  0.5155680000000  0.5047420000000 1.0
C      1  0.5508410000000  0.5155540000000  0.4952530000000 1.0
C      1  0.5508370000000  0.4844330000000  0.5047540000000 1.0
C      1  0.4952580000000  0.5508420000000  0.5155520000000 1.0
C      1  0.5047550000000  0.5508360000000  0.4844310000000 1.0
C      1  0.5047400000000  0.4491630000000  0.5155700000000 1.0
C      1  0.4844330000000  0.4491620000000  0.4952600000000 1.0
C      1  0.4491610000000  0.4952560000000  0.4844360000000 1.0
C      1  0.4952540000000  0.4844310000000  0.4491630000000 1.0
C      1  0.4844450000000  0.5508420000000  0.5047380000000 1.0
C      1  0.5155540000000  0.4491600000000  0.5047570000000 1.0
C      1  0.5155680000000  0.5508360000000  0.4952450000000 1.0
C      1  0.4491600000000  0.5047570000000  0.5155570000000 1.0
C      1  0.5508380000000  0.4952490000000  0.5155650000000 1.0
C      1  0.5508410000000  0.5047390000000  0.4844420000000 1.0
C      1  0.4952510000000  0.5155700000000  0.5508360000000 1.0
C      1  0.5047420000000  0.4844470000000  0.5508420000000 1.0
C      1  0.5047530000000  0.5155520000000  0.4491590000000 1.0
C      1  0.4953760000000  0.5150100000000  0.4377600000000 1.0
C      1  0.4377610000000  0.4953810000000  0.5150160000000 1.0
C      1  0.5150120000000  0.4377600000000  0.4953820000000 1.0
C      1  0.4953640000000  0.4849910000000  0.5622400000000 1.0
C      1  0.5046320000000  0.4849690000000  0.4377650000000 1.0
C      1  0.5046280000000  0.5150290000000  0.5622350000000 1.0
C      1  0.4377640000000  0.5046350000000  0.4849750000000 1.0
C      1  0.5622370000000  0.5046240000000  0.5150230000000 1.0
C      1  0.5622380000000  0.4953600000000  0.4849850000000 1.0
C      1  0.5150270000000  0.5622360000000  0.5046200000000 1.0
C      1  0.4849890000000  0.5622390000000  0.4953590000000 1.0
C      1  0.4849720000000  0.4377650000000  0.5046390000000 1.0
C      1  0.4953610000000  0.4377660000000  0.5150300000000 1.0
C      1  0.4377650000000  0.5150270000000  0.4953640000000 1.0
C      1  0.5150230000000  0.4953580000000  0.4377640000000 1.0
C      1  0.4953790000000  0.5622360000000  0.4849700000000 1.0
C      1  0.5046230000000  0.4377590000000  0.4849910000000 1.0
C      1  0.5046370000000  0.5622390000000  0.5150100000000 1.0
C      1  0.4377600000000  0.4849890000000  0.5046280000000 1.0
C      1  0.5622390000000  0.5150130000000  0.5046310000000 1.0
C      1  0.5622360000000  0.4849720000000  0.4953770000000 1.0
C      1  0.5150160000000  0.5046380000000  0.5622380000000 1.0
C      1  0.4849760000000  0.4953830000000  0.5622370000000 1.0
C      1  0.4849850000000  0.5046210000000  0.4377610000000 1.0
C      1  0.5282610000000  0.4613550000000  0.4512580000000 1.0
C      1  0.4512560000000  0.5282630000000  0.4613590000000 1.0
C      1  0.4613590000000  0.4512590000000  0.5282680000000 1.0
C      1  0.5282640000000  0.5386380000000  0.5487460000000 1.0
C      1  0.4717450000000  0.5386290000000  0.4512410000000 1.0
C      1  0.4717290000000  0.4613790000000  0.5487550000000 1.0
C      1  0.4512430000000  0.4717500000000  0.5386350000000 1.0
C      1  0.5487500000000  0.4717250000000  0.4613750000000 1.0
C      1  0.5487520000000  0.5282630000000  0.5386320000000 1.0
C      1  0.4613750000000  0.5487510000000  0.4717260000000 1.0
C      1  0.5386370000000  0.5487500000000  0.5282570000000 1.0
C      1  0.5386290000000  0.4512400000000  0.4717480000000 1.0
C      1  0.5282590000000  0.4512390000000  0.4613770000000 1.0
C      1  0.4512430000000  0.4613780000000  0.5282660000000 1.0
C      1  0.4613740000000  0.5282600000000  0.4512420000000 1.0
C      1  0.5282660000000  0.5487530000000  0.5386270000000 1.0
C      1  0.4717280000000  0.4512590000000  0.5386390000000 1.0
C      1  0.4717460000000  0.5487480000000  0.4613570000000 1.0
C      1  0.4512560000000  0.5386350000000  0.4717270000000 1.0
C      1  0.5487480000000  0.4613560000000  0.4717470000000 1.0
C      1  0.5487540000000  0.5386320000000  0.5282600000000 1.0
C      1  0.4613600000000  0.4717500000000  0.5487530000000 1.0
C      1  0.5386340000000  0.5282660000000  0.5487480000000 1.0
C      1  0.5386330000000  0.4717240000000  0.4512570000000 1.0
C      1  0.4631490000000  0.5571550000000  0.4830790000000 1.0
C      1  0.4830820000000  0.4631530000000  0.5571580000000 1.0
C      1  0.5571530000000  0.4830770000000  0.4631480000000 1.0
C      1  0.4631330000000  0.4428550000000  0.5169160000000 1.0
C      1  0.5368530000000  0.4428400000000  0.4831030000000 1.0
C      1  0.5368650000000  0.5571510000000  0.5169020000000 1.0
C      1  0.4830990000000  0.5368520000000  0.4428400000000 1.0
C      1  0.5169100000000  0.5368660000000  0.5571480000000 1.0
C      1  0.5169080000000  0.4631290000000  0.4428540000000 1.0
C      1  0.5571530000000  0.5169080000000  0.5368600000000 1.0
C      1  0.4428520000000  0.5169100000000  0.4631340000000 1.0
C      1  0.4428420000000  0.4831040000000  0.5368580000000 1.0
C      1  0.4631350000000  0.4831050000000  0.5571530000000 1.0
C      1  0.4831010000000  0.5571490000000  0.4631300000000 1.0
C      1  0.5571490000000  0.4631310000000  0.4831010000000 1.0
C      1  0.4631470000000  0.5169040000000  0.4428420000000 1.0
C      1  0.5368610000000  0.4830770000000  0.4428520000000 1.0
C      1  0.5368570000000  0.5169140000000  0.5571530000000 1.0
C      1  0.4830810000000  0.4428550000000  0.5368670000000 1.0
C      1  0.5169140000000  0.5571570000000  0.5368510000000 1.0
C      1  0.5169040000000  0.4428390000000  0.4631520000000 1.0
C      1  0.5571560000000  0.5368550000000  0.5169070000000 1.0
C      1  0.4428410000000  0.4631510000000  0.5169110000000 1.0
C      1  0.4428530000000  0.5368630000000  0.4830810000000 1.0
C      1  0.4746520000000  0.4945400000000  0.4845860000000 1.0
C      1  0.4845840000000  0.4746530000000  0.4945430000000 1.0
C      1  0.4945390000000  0.4845830000000  0.4746540000000 1.0
C      1  0.4746520000000  0.5054660000000  0.5154110000000 1.0
C      1  0.5253500000000  0.5054550000000  0.4845870000000 1.0
C      1  0.5253460000000  0.4945390000000  0.5154160000000 1.0
C      1  0.4845890000000  0.5253510000000  0.5054550000000 1.0
C      1  0.5154170000000  0.5253450000000  0.4945360000000 1.0
C      1  0.5154100000000  0.4746510000000  0.5054660000000 1.0
C      1  0.4945400000000  0.5154190000000  0.5253450000000 1.0
C      1  0.5054640000000  0.5154090000000  0.4746500000000 1.0
C      1  0.5054570000000  0.4845900000000  0.5253510000000 1.0
C      1  0.4746500000000  0.4845890000000  0.4945400000000 1.0
C      1  0.4845870000000  0.4945370000000  0.4746520000000 1.0
C      1  0.4945370000000  0.4746500000000  0.4845900000000 1.0
C      1  0.4746530000000  0.5154180000000  0.5054560000000 1.0
C      1  0.5253460000000  0.4845840000000  0.5054650000000 1.0
C      1  0.5253500000000  0.5154100000000  0.4945390000000 1.0
C      1  0.4845850000000  0.5054670000000  0.5253460000000 1.0
C      1  0.5154110000000  0.4945420000000  0.5253500000000 1.0
C      1  0.5154160000000  0.5054540000000  0.4746520000000 1.0
C      1  0.4945420000000  0.5253510000000  0.5154090000000 1.0
C      1  0.5054560000000  0.4746540000000  0.5154180000000 1.0
C      1  0.5054650000000  0.5253450000000  0.4845830000000 1.0
C      1  0.4896770000000  0.5388030000000  0.5642900000000 1.0
C      1  0.5642930000000  0.4896750000000  0.5387970000000 1.0
C      1  0.5387990000000  0.5642900000000  0.4896690000000 1.0
C      1  0.4896760000000  0.4612000000000  0.4357090000000 1.0
C      1  0.5103140000000  0.4612190000000  0.5643040000000 1.0
C      1  0.5103330000000  0.5387790000000  0.4356970000000 1.0
C      1  0.5643010000000  0.5103090000000  0.4612120000000 1.0
C      1  0.4357020000000  0.5103380000000  0.5387850000000 1.0
C      1  0.4357050000000  0.4896780000000  0.4612070000000 1.0
C      1  0.5387820000000  0.4357000000000  0.5103370000000 1.0
C      1  0.4612020000000  0.4357060000000  0.4896850000000 1.0
C      1  0.4612170000000  0.5643030000000  0.5103100000000 1.0
C      1  0.4896820000000  0.5643050000000  0.5387790000000 1.0
C      1  0.5643020000000  0.5387810000000  0.4896740000000 1.0
C      1  0.5387850000000  0.4896820000000  0.5643010000000 1.0
C      1  0.4896710000000  0.4356980000000  0.4612190000000 1.0
C      1  0.5103340000000  0.5642890000000  0.4611990000000 1.0
C      1  0.5103130000000  0.4357080000000  0.5388020000000 1.0
C      1  0.5642910000000  0.4612030000000  0.5103340000000 1.0
C      1  0.4357070000000  0.5388000000000  0.5103130000000 1.0
C      1  0.4356990000000  0.4612160000000  0.4896790000000 1.0
C      1  0.5387960000000  0.5103080000000  0.4357040000000 1.0
C      1  0.4612120000000  0.4896710000000  0.4357020000000 1.0
C      1  0.4612060000000  0.5103390000000  0.5642920000000 1.0
C      1  0.5513270000000  0.4843960000000  0.5413740000000 1.0
C      1  0.5413750000000  0.5513240000000  0.4843890000000 1.0
C      1  0.4843970000000  0.5413780000000  0.5513240000000 1.0
C      1  0.5513360000000  0.5155910000000  0.4586330000000 1.0
C      1  0.4486680000000  0.5156180000000  0.5413620000000 1.0
C      1  0.4486690000000  0.4843950000000  0.4586320000000 1.0
C      1  0.5413600000000  0.4486660000000  0.5156160000000 1.0
C      1  0.4586270000000  0.4486710000000  0.4844010000000 1.0
C      1  0.4586380000000  0.5513390000000  0.5155930000000 1.0
C      1  0.4843930000000  0.4586260000000  0.4486740000000 1.0
C      1  0.5155960000000  0.4586390000000  0.5513400000000 1.0
C      1  0.5156130000000  0.5413570000000  0.4486630000000 1.0
C      1  0.5513380000000  0.5413580000000  0.4843920000000 1.0
C      1  0.5413620000000  0.4843990000000  0.5513370000000 1.0
C      1  0.4843990000000  0.5513400000000  0.5413580000000 1.0
C      1  0.5513250000000  0.4586290000000  0.5156150000000 1.0
C      1  0.4486730000000  0.5413770000000  0.5155940000000 1.0
C      1  0.4486640000000  0.4586360000000  0.4843990000000 1.0
C      1  0.5413730000000  0.5155910000000  0.4486690000000 1.0
C      1  0.4586340000000  0.4843920000000  0.4486680000000 1.0
C      1  0.4586310000000  0.5156190000000  0.5513260000000 1.0
C      1  0.4843910000000  0.4486640000000  0.4586400000000 1.0
C      1  0.5156140000000  0.5513230000000  0.4586250000000 1.0
C      1  0.5155950000000  0.4486730000000  0.5413770000000 1.0
C      1  0.5146100000000  0.4747780000000  0.4364120000000 1.0
C      1  0.4364110000000  0.5146130000000  0.4747840000000 1.0
C      1  0.4747820000000  0.4364130000000  0.5146180000000 1.0
C      1  0.5146080000000  0.5252180000000  0.5635900000000 1.0
C      1  0.4853980000000  0.5252010000000  0.4364020000000 1.0
C      1  0.4853830000000  0.4748030000000  0.5635960000000 1.0
C      1  0.4364040000000  0.4854030000000  0.5252080000000 1.0
C      1  0.5635930000000  0.4853790000000  0.4747970000000 1.0
C      1  0.5635930000000  0.5146050000000  0.5252110000000 1.0
C      1  0.4748000000000  0.5635940000000  0.4853790000000 1.0
C      1  0.5252160000000  0.5635920000000  0.5146000000000 1.0
C      1  0.5252020000000  0.4364020000000  0.4854030000000 1.0
C      1  0.5146030000000  0.4364010000000  0.4748020000000 1.0
C      1  0.4364030000000  0.4748010000000  0.5146090000000 1.0
C      1  0.4747970000000  0.5146020000000  0.4364030000000 1.0
C      1  0.5146160000000  0.5635950000000  0.5252000000000 1.0
C      1  0.4853810000000  0.4364130000000  0.5252190000000 1.0
C      1  0.4854010000000  0.5635910000000  0.4747790000000 1.0
C      1  0.4364110000000  0.5252150000000  0.4853820000000 1.0
C      1  0.5635910000000  0.4747800000000  0.4853990000000 1.0
C      1  0.5635950000000  0.5252040000000  0.5146090000000 1.0
C      1  0.4747850000000  0.4854050000000  0.5635940000000 1.0
C      1  0.5252070000000  0.5146170000000  0.5635920000000 1.0
C      1  0.5252120000000  0.4853770000000  0.4364110000000 1.0
END
