TITL C-3151192-8964-50 -0.00435254968380656 1000000 -1598.31667365216 0 0 240 (C1) n - 1
REM
REM in /scratch/bkarasulu/Only-C240/Try4-Only-SYMOP24
REM
REM
REM
REM
REM
REM ./C.cell (018bbde761a0794ceee8127bb1f748ef)
REM
REM compiler GCC version 9.2.1 20190827 (Red Hat 9.2.1-1)
REM options -cpp -mtune=generic -march=x86-64 -g -O0 -fpre-include=/usr/include/finclude/math-vector-fortran.h
REM seed -352437864 97347631 -1422216396 -1617069660 288951764 1987899149 1573090561 2100059869 1544955055 2051716430 2144313323 1728687787 -1890334220 174547945 -231505743 1158642084 1227517382 -2104213685 1034963840 -431832310 -1159953605 -1880054651 -1405129279 -1272926906 623549144 49986321 -1394419605 -1825425869 -869091193 -768794636 -2109708067 1679756997 928831357
REM
CELL 1.54180  100.00000  100.00000  100.00000   90.00000   90.00000   90.00000
LATT -1
SFAC C  
C      1  0.4995100000000  0.5226570000000  0.5882120000000 1.0
C      1  0.5940860000000  0.4874820000000  0.5145420000000 1.0
C      1  0.5185670000000  0.5843450000000  0.4938240000000 1.0
C      1  0.4968910000000  0.4830150000000  0.4140900000000 1.0
C      1  0.4975200000000  0.4786660000000  0.5807810000000 1.0
C      1  0.5064120000000  0.5287250000000  0.4120920000000 1.0
C      1  0.5832750000000  0.5065960000000  0.4724610000000 1.0
C      1  0.4144390000000  0.5123500000000  0.5207960000000 1.0
C      1  0.4110140000000  0.4895760000000  0.4780450000000 1.0
C      1  0.5197580000000  0.4047730000000  0.5102380000000 1.0
C      1  0.4794130000000  0.4155060000000  0.4994630000000 1.0
C      1  0.4761700000000  0.5905200000000  0.5063170000000 1.0
C      1  0.5124580000000  0.5233330000000  0.5861680000000 1.0
C      1  0.4128120000000  0.4996820000000  0.5178670000000 1.0
C      1  0.4708930000000  0.5876110000000  0.4946250000000 1.0
C      1  0.5096480000000  0.4870950000000  0.4151570000000 1.0
C      1  0.4843380000000  0.4788790000000  0.5797630000000 1.0
C      1  0.4946220000000  0.5233760000000  0.4098240000000 1.0
C      1  0.4079360000000  0.5017080000000  0.4819250000000 1.0
C      1  0.5921810000000  0.5003000000000  0.5133570000000 1.0
C      1  0.5872770000000  0.4943020000000  0.4747350000000 1.0
C      1  0.4763600000000  0.4188970000000  0.5117430000000 1.0
C      1  0.5240600000000  0.4054880000000  0.4979120000000 1.0
C      1  0.5229070000000  0.5839970000000  0.5064150000000 1.0
C      1  0.4910040000000  0.4502800000000  0.5345290000000 1.0
C      1  0.5312640000000  0.4986200000000  0.4448300000000 1.0
C      1  0.4421850000000  0.5301410000000  0.4820630000000 1.0
C      1  0.4800820000000  0.5490230000000  0.4724090000000 1.0
C      1  0.5091670000000  0.5484170000000  0.5316940000000 1.0
C      1  0.5189890000000  0.4436250000000  0.4734510000000 1.0
C      1  0.5324810000000  0.5117610000000  0.5486940000000 1.0
C      1  0.4689150000000  0.5139840000000  0.4471410000000 1.0
C      1  0.4661200000000  0.4991170000000  0.5458870000000 1.0
C      1  0.4478790000000  0.4730090000000  0.5119890000000 1.0
C      1  0.5580490000000  0.4621590000000  0.4848750000000 1.0
C      1  0.5495170000000  0.5186230000000  0.5163770000000 1.0
C      1  0.5211530000000  0.4407340000000  0.5344660000000 1.0
C      1  0.4733170000000  0.4847910000000  0.4486460000000 1.0
C      1  0.5452390000000  0.5215220000000  0.4848830000000 1.0
C      1  0.5085620000000  0.5555380000000  0.4711710000000 1.0
C      1  0.4814150000000  0.5571580000000  0.5316530000000 1.0
C      1  0.4909850000000  0.4434490000000  0.4745390000000 1.0
C      1  0.4742470000000  0.5267580000000  0.5521750000000 1.0
C      1  0.5266710000000  0.5253970000000  0.4535620000000 1.0
C      1  0.5237180000000  0.4812910000000  0.5517200000000 1.0
C      1  0.5590320000000  0.4585480000000  0.5116680000000 1.0
C      1  0.4502770000000  0.4703850000000  0.4839190000000 1.0
C      1  0.4516550000000  0.5329890000000  0.5056130000000 1.0
C      1  0.5183780000000  0.5080750000000  0.5692300000000 1.0
C      1  0.5703460000000  0.5085480000000  0.5031830000000 1.0
C      1  0.5064340000000  0.5703990000000  0.5182840000000 1.0
C      1  0.5137520000000  0.5068180000000  0.4296570000000 1.0
C      1  0.4791630000000  0.4987770000000  0.5670850000000 1.0
C      1  0.4858880000000  0.5097460000000  0.4297650000000 1.0
C      1  0.5755390000000  0.4803640000000  0.4919390000000 1.0
C      1  0.4288340000000  0.4878570000000  0.5020080000000 1.0
C      1  0.4271090000000  0.5136790000000  0.4934650000000 1.0
C      1  0.5132300000000  0.4234530000000  0.4871460000000 1.0
C      1  0.4944190000000  0.4292900000000  0.5235600000000 1.0
C      1  0.4837640000000  0.5708210000000  0.4849300000000 1.0
C      1  0.4851670000000  0.5113750000000  0.5703820000000 1.0
C      1  0.4304880000000  0.5192790000000  0.5060100000000 1.0
C      1  0.4926000000000  0.5733380000000  0.5151870000000 1.0
C      1  0.4854350000000  0.4953100000000  0.4303810000000 1.0
C      1  0.5131080000000  0.4949430000000  0.5697680000000 1.0
C      1  0.5141270000000  0.5208340000000  0.4316510000000 1.0
C      1  0.4301480000000  0.4841280000000  0.4884830000000 1.0
C      1  0.5773690000000  0.4755930000000  0.5052000000000 1.0
C      1  0.5670730000000  0.5111360000000  0.4897510000000 1.0
C      1  0.4991170000000  0.4233360000000  0.4875280000000 1.0
C      1  0.5074660000000  0.4246060000000  0.5206560000000 1.0
C      1  0.4980320000000  0.5726250000000  0.4858550000000 1.0
C      1  0.4540300000000  0.5099930000000  0.5110050000000 1.0
C      1  0.5231150000000  0.4452370000000  0.5107350000000 1.0
C      1  0.5037760000000  0.5221590000000  0.4566640000000 1.0
C      1  0.4529520000000  0.4942020000000  0.4797400000000 1.0
C      1  0.5540240000000  0.4815480000000  0.5151750000000 1.0
C      1  0.5460030000000  0.4974190000000  0.4847930000000 1.0
C      1  0.5100310000000  0.5501300000000  0.4944550000000 1.0
C      1  0.4798110000000  0.5491670000000  0.5093030000000 1.0
C      1  0.4899820000000  0.4460330000000  0.4978340000000 1.0
C      1  0.5016030000000  0.4878710000000  0.5464520000000 1.0
C      1  0.4950140000000  0.4911690000000  0.4544460000000 1.0
C      1  0.4967620000000  0.5208820000000  0.5474860000000 1.0
C      1  0.5514940000000  0.4952240000000  0.5159390000000 1.0
C      1  0.4919900000000  0.4504590000000  0.5105510000000 1.0
C      1  0.4898700000000  0.5221450000000  0.4537230000000 1.0
C      1  0.5487350000000  0.4837340000000  0.4870080000000 1.0
C      1  0.4524660000000  0.4962780000000  0.5124880000000 1.0
C      1  0.4503590000000  0.5076940000000  0.4790380000000 1.0
C      1  0.4811430000000  0.5461440000000  0.4955340000000 1.0
C      1  0.5086350000000  0.5469870000000  0.5078990000000 1.0
C      1  0.5232530000000  0.4452460000000  0.4970410000000 1.0
C      1  0.4893080000000  0.4938610000000  0.5435350000000 1.0
C      1  0.5089120000000  0.4928440000000  0.4523670000000 1.0
C      1  0.5102390000000  0.5177400000000  0.5463200000000 1.0
C      1  0.4726400000000  0.5789340000000  0.4851390000000 1.0
C      1  0.4767320000000  0.4865960000000  0.5727340000000 1.0
C      1  0.5843740000000  0.4855440000000  0.4833250000000 1.0
C      1  0.4814610000000  0.4248030000000  0.5220070000000 1.0
C      1  0.5232410000000  0.4140390000000  0.4882440000000 1.0
C      1  0.5183000000000  0.5768140000000  0.5162140000000 1.0
C      1  0.4881820000000  0.5161650000000  0.4180030000000 1.0
C      1  0.5209480000000  0.5185470000000  0.5776210000000 1.0
C      1  0.5135790000000  0.4983030000000  0.4194920000000 1.0
C      1  0.5820600000000  0.5066100000000  0.5092660000000 1.0
C      1  0.4156600000000  0.5090370000000  0.4888480000000 1.0
C      1  0.4187990000000  0.4927650000000  0.5090840000000 1.0
C      1  0.5081660000000  0.5816210000000  0.4871290000000 1.0
C      1  0.5074990000000  0.4860010000000  0.5782540000000 1.0
C      1  0.4210410000000  0.4812930000000  0.4785580000000 1.0
C      1  0.5132670000000  0.4131300000000  0.5172510000000 1.0
C      1  0.4883500000000  0.4152640000000  0.4902210000000 1.0
C      1  0.4854780000000  0.5844690000000  0.5125850000000 1.0
C      1  0.5145200000000  0.5307440000000  0.4220850000000 1.0
C      1  0.4904150000000  0.5169740000000  0.5813370000000 1.0
C      1  0.4859310000000  0.4864690000000  0.4196210000000 1.0
C      1  0.4228690000000  0.5216480000000  0.5170490000000 1.0
C      1  0.5739260000000  0.5133480000000  0.4780900000000 1.0
C      1  0.5887150000000  0.4757920000000  0.5130720000000 1.0
C      1  0.4472270000000  0.5045770000000  0.4357520000000 1.0
C      1  0.4437800000000  0.4490980000000  0.5139340000000 1.0
C      1  0.5214750000000  0.4480630000000  0.4524490000000 1.0
C      1  0.4442380000000  0.5035000000000  0.5593900000000 1.0
C      1  0.5536530000000  0.5110030000000  0.4385640000000 1.0
C      1  0.5539590000000  0.5045380000000  0.5620270000000 1.0
C      1  0.4241160000000  0.5460150000000  0.4864000000000 1.0
C      1  0.5527610000000  0.5444750000000  0.5128430000000 1.0
C      1  0.5731910000000  0.4443020000000  0.4729150000000 1.0
C      1  0.5094700000000  0.5579090000000  0.5560180000000 1.0
C      1  0.4751730000000  0.5619840000000  0.4505650000000 1.0
C      1  0.4905580000000  0.4397880000000  0.5586470000000 1.0
C      1  0.5471740000000  0.5351920000000  0.4410100000000 1.0
C      1  0.5731500000000  0.4362260000000  0.5130260000000 1.0
C      1  0.4882870000000  0.4386450000000  0.4508600000000 1.0
C      1  0.5489450000000  0.4799830000000  0.5590750000000 1.0
C      1  0.4519210000000  0.4797010000000  0.4345310000000 1.0
C      1  0.4501650000000  0.5275520000000  0.5633610000000 1.0
C      1  0.5568080000000  0.5452590000000  0.4879600000000 1.0
C      1  0.4425680000000  0.5559670000000  0.5092520000000 1.0
C      1  0.4407210000000  0.4472320000000  0.4845500000000 1.0
C      1  0.4869100000000  0.5692040000000  0.5545620000000 1.0
C      1  0.5000350000000  0.5604770000000  0.4468430000000 1.0
C      1  0.5146530000000  0.4324420000000  0.5587680000000 1.0
C      1  0.4618690000000  0.5277830000000  0.5582260000000 1.0
C      1  0.5662920000000  0.4470240000000  0.5124250000000 1.0
C      1  0.5045650000000  0.5587200000000  0.4585440000000 1.0
C      1  0.4626370000000  0.4809440000000  0.4409720000000 1.0
C      1  0.5368320000000  0.4807450000000  0.5555040000000 1.0
C      1  0.5368460000000  0.5322590000000  0.4476660000000 1.0
C      1  0.5503770000000  0.5343340000000  0.4856990000000 1.0
C      1  0.4443360000000  0.5449850000000  0.5018100000000 1.0
C      1  0.4454430000000  0.4583140000000  0.4903360000000 1.0
C      1  0.5175260000000  0.4359680000000  0.5469360000000 1.0
C      1  0.4964970000000  0.4424810000000  0.4610650000000 1.0
C      1  0.4830520000000  0.5643730000000  0.5434960000000 1.0
C      1  0.5443880000000  0.5088490000000  0.5550320000000 1.0
C      1  0.4454680000000  0.4598040000000  0.5062980000000 1.0
C      1  0.4756010000000  0.5554410000000  0.4612720000000 1.0
C      1  0.5423880000000  0.5053360000000  0.4405990000000 1.0
C      1  0.4540780000000  0.5008300000000  0.5519410000000 1.0
C      1  0.4582230000000  0.5092900000000  0.4398710000000 1.0
C      1  0.4364720000000  0.5413070000000  0.4886980000000 1.0
C      1  0.5519440000000  0.5319840000000  0.5147370000000 1.0
C      1  0.5663770000000  0.4537110000000  0.4780460000000 1.0
C      1  0.4908960000000  0.4454080000000  0.5473910000000 1.0
C      1  0.5114680000000  0.4443390000000  0.4611620000000 1.0
C      1  0.5101650000000  0.5542200000000  0.5439750000000 1.0
C      1  0.4735270000000  0.4877380000000  0.4631660000000 1.0
C      1  0.4575410000000  0.4727480000000  0.4726660000000 1.0
C      1  0.4778240000000  0.4471310000000  0.4791160000000 1.0
C      1  0.4792070000000  0.5344390000000  0.5410460000000 1.0
C      1  0.5246830000000  0.5217390000000  0.4675360000000 1.0
C      1  0.5161090000000  0.4705130000000  0.5467730000000 1.0
C      1  0.4628290000000  0.5310650000000  0.5145860000000 1.0
C      1  0.5350030000000  0.5159540000000  0.4757180000000 1.0
C      1  0.5452190000000  0.4598830000000  0.5161580000000 1.0
C      1  0.4751920000000  0.5444520000000  0.5316020000000 1.0
C      1  0.5214320000000  0.5502400000000  0.4744850000000 1.0
C      1  0.5329700000000  0.4470170000000  0.5318700000000 1.0
C      1  0.5310590000000  0.4855160000000  0.4506090000000 1.0
C      1  0.5435780000000  0.4609860000000  0.4878600000000 1.0
C      1  0.5325700000000  0.4463910000000  0.4752480000000 1.0
C      1  0.5310210000000  0.5176880000000  0.5358320000000 1.0
C      1  0.4683600000000  0.5181390000000  0.4610000000000 1.0
C      1  0.4684930000000  0.4943840000000  0.5328140000000 1.0
C      1  0.5401730000000  0.5129650000000  0.5259020000000 1.0
C      1  0.4517810000000  0.5301090000000  0.4728060000000 1.0
C      1  0.4544560000000  0.4763620000000  0.5237050000000 1.0
C      1  0.5133880000000  0.5347900000000  0.5276430000000 1.0
C      1  0.4814600000000  0.5347780000000  0.4746750000000 1.0
C      1  0.4799900000000  0.4569140000000  0.5288220000000 1.0
C      1  0.5190530000000  0.4837180000000  0.4556680000000 1.0
C      1  0.4574840000000  0.5176230000000  0.4702700000000 1.0
C      1  0.4810230000000  0.4584720000000  0.5158160000000 1.0
C      1  0.5178220000000  0.5239390000000  0.5360050000000 1.0
C      1  0.4802260000000  0.5252610000000  0.4639490000000 1.0
C      1  0.4822450000000  0.4928980000000  0.5319940000000 1.0
C      1  0.4586420000000  0.4896550000000  0.5236410000000 1.0
C      1  0.5390600000000  0.4739070000000  0.4869170000000 1.0
C      1  0.5420280000000  0.4990140000000  0.5253320000000 1.0
C      1  0.4816240000000  0.5340770000000  0.4885730000000 1.0
C      1  0.5124620000000  0.5356290000000  0.5139120000000 1.0
C      1  0.5348280000000  0.4496830000000  0.4888780000000 1.0
C      1  0.4865940000000  0.4917090000000  0.4658750000000 1.0
C      1  0.5367300000000  0.5019150000000  0.4755010000000 1.0
C      1  0.5347480000000  0.4503720000000  0.5184460000000 1.0
C      1  0.4921470000000  0.5304820000000  0.5394140000000 1.0
C      1  0.5106350000000  0.5217790000000  0.4688260000000 1.0
C      1  0.5037820000000  0.4738540000000  0.5436910000000 1.0
C      1  0.5442310000000  0.4731050000000  0.5193760000000 1.0
C      1  0.4616840000000  0.4860880000000  0.4711020000000 1.0
C      1  0.4629840000000  0.5174100000000  0.5183870000000 1.0
C      1  0.5216810000000  0.5475480000000  0.4874610000000 1.0
C      1  0.4722560000000  0.5410220000000  0.5180600000000 1.0
C      1  0.4763890000000  0.4487650000000  0.4922150000000 1.0
C      1  0.5190230000000  0.5081730000000  0.5538750000000 1.0
C      1  0.5556820000000  0.5079250000000  0.5079790000000 1.0
C      1  0.5039340000000  0.5555540000000  0.5198590000000 1.0
C      1  0.5167260000000  0.5037630000000  0.4441500000000 1.0
C      1  0.4790800000000  0.5016060000000  0.5524410000000 1.0
C      1  0.4822700000000  0.5160610000000  0.4426740000000 1.0
C      1  0.5612360000000  0.4756080000000  0.4910360000000 1.0
C      1  0.4440890000000  0.4863650000000  0.5045650000000 1.0
C      1  0.4413520000000  0.5162000000000  0.4881130000000 1.0
C      1  0.5137490000000  0.4388790000000  0.4870380000000 1.0
C      1  0.4984660000000  0.4440260000000  0.5226550000000 1.0
C      1  0.4851040000000  0.5557450000000  0.4842460000000 1.0
C      1  0.4842720000000  0.5163790000000  0.5556910000000 1.0
C      1  0.4453460000000  0.5198440000000  0.5029290000000 1.0
C      1  0.4879600000000  0.5589260000000  0.5182300000000 1.0
C      1  0.4854530000000  0.4892060000000  0.4433060000000 1.0
C      1  0.5140880000000  0.4927640000000  0.5543340000000 1.0
C      1  0.5151470000000  0.5196450000000  0.4466160000000 1.0
C      1  0.4453650000000  0.4841260000000  0.4887920000000 1.0
C      1  0.5629120000000  0.4722190000000  0.5070850000000 1.0
C      1  0.5522120000000  0.5098330000000  0.4915340000000 1.0
C      1  0.4983150000000  0.4391340000000  0.4873670000000 1.0
C      1  0.5133260000000  0.4392450000000  0.5211510000000 1.0
C      1  0.5008780000000  0.5577210000000  0.4842180000000 1.0
END
