TITL C-3144570-9451-8 0.0201897408215639 1000000 -3693.38664688098 0 0 520 (C1) n - 1
REM
REM in /scratch/bkarasulu/Only-C240/Try4-Only-SYMOP24
REM
REM
REM
REM
REM
REM ./C.cell (018bbde761a0794ceee8127bb1f748ef)
REM
REM compiler GCC version 9.2.1 20190827 (Red Hat 9.2.1-1)
REM options -cpp -mtune=generic -march=x86-64 -g -O0 -fpre-include=/usr/include/finclude/math-vector-fortran.h
REM seed -1105436553 53091469 -438756084 2012683792 -618038523 -917439479 36465702 913135020 1716870276 1324321081 50648660 -2027839236 263679371 1207545054 63743310 793513033 -668132857 908122072 -1502075640 1048866374 1783907116 345090773 -1983533465 -1866482761 331351125 983666580 938693237 -696258611 434356754 435002571 1142963417 819502512 944552671
REM
CELL 1.54180  100.00000  100.00000  100.00000   90.00000   90.00000   90.00000
LATT -1
SFAC C  
C      1  0.4327480000000  0.5565250000000  0.4894810000000 1.0
C      1  0.4913770000000  0.4283680000000  0.5594540000000 1.0
C      1  0.5563580000000  0.4940380000000  0.4412670000000 1.0
C      1  0.4271760000000  0.4364030000000  0.5092490000000 1.0
C      1  0.5724350000000  0.4406800000000  0.4918370000000 1.0
C      1  0.5722040000000  0.5587820000000  0.5110910000000 1.0
C      1  0.4931550000000  0.5696420000000  0.4412450000000 1.0
C      1  0.5105240000000  0.5702640000000  0.5614470000000 1.0
C      1  0.5092910000000  0.4311700000000  0.4415920000000 1.0
C      1  0.5612540000000  0.5082840000000  0.5739700000000 1.0
C      1  0.4402560000000  0.5111420000000  0.4260640000000 1.0
C      1  0.4419100000000  0.4882950000000  0.5683220000000 1.0
C      1  0.4294800000000  0.4875740000000  0.5608620000000 1.0
C      1  0.4926120000000  0.5600300000000  0.4307890000000 1.0
C      1  0.5634490000000  0.4293980000000  0.4911570000000 1.0
C      1  0.4305980000000  0.5102440000000  0.4365920000000 1.0
C      1  0.5681750000000  0.4943570000000  0.4495060000000 1.0
C      1  0.5707640000000  0.5088090000000  0.5631480000000 1.0
C      1  0.4900920000000  0.4378840000000  0.5700640000000 1.0
C      1  0.5102060000000  0.5605910000000  0.5721410000000 1.0
C      1  0.5098940000000  0.4405890000000  0.4306690000000 1.0
C      1  0.5635760000000  0.5702840000000  0.5110770000000 1.0
C      1  0.4363360000000  0.4254170000000  0.5109370000000 1.0
C      1  0.4434200000000  0.5659470000000  0.4901250000000 1.0
C      1  0.5022680000000  0.5320630000000  0.4530850000000 1.0
C      1  0.4538940000000  0.5087860000000  0.5289890000000 1.0
C      1  0.5295360000000  0.4574560000000  0.5070030000000 1.0
C      1  0.5081760000000  0.4683600000000  0.5427530000000 1.0
C      1  0.4866290000000  0.4727690000000  0.4574000000000 1.0
C      1  0.4945490000000  0.5289350000000  0.5475140000000 1.0
C      1  0.4497800000000  0.4888580000000  0.4675100000000 1.0
C      1  0.5415010000000  0.4919700000000  0.5287000000000 1.0
C      1  0.5434760000000  0.5069590000000  0.4699150000000 1.0
C      1  0.5290500000000  0.5488840000000  0.4904880000000 1.0
C      1  0.4735440000000  0.5477440000000  0.5076550000000 1.0
C      1  0.4669090000000  0.4543920000000  0.4970880000000 1.0
C      1  0.5074600000000  0.4576100000000  0.5313940000000 1.0
C      1  0.4522690000000  0.5300740000000  0.5091770000000 1.0
C      1  0.5243320000000  0.5083750000000  0.4529150000000 1.0
C      1  0.4987190000000  0.5461420000000  0.4600080000000 1.0
C      1  0.4881790000000  0.4554810000000  0.4769510000000 1.0
C      1  0.4936760000000  0.5487170000000  0.5285580000000 1.0
C      1  0.4449810000000  0.4710930000000  0.4870180000000 1.0
C      1  0.5463100000000  0.5274710000000  0.4906270000000 1.0
C      1  0.5412600000000  0.4684750000000  0.5062910000000 1.0
C      1  0.5320110000000  0.4916970000000  0.5417660000000 1.0
C      1  0.4745300000000  0.5084730000000  0.5472560000000 1.0
C      1  0.4630500000000  0.4932740000000  0.4578290000000 1.0
C      1  0.4689930000000  0.4778000000000  0.4097440000000 1.0
C      1  0.4168390000000  0.4642910000000  0.4721420000000 1.0
C      1  0.4757260000000  0.4159780000000  0.4697530000000 1.0
C      1  0.4698920000000  0.5214660000000  0.5808510000000 1.0
C      1  0.5321270000000  0.5205960000000  0.4157820000000 1.0
C      1  0.5331160000000  0.4742170000000  0.5892380000000 1.0
C      1  0.4150450000000  0.5281080000000  0.5215470000000 1.0
C      1  0.5879370000000  0.5317280000000  0.4772920000000 1.0
C      1  0.5855890000000  0.4697180000000  0.5243000000000 1.0
C      1  0.4798670000000  0.5815770000000  0.5309560000000 1.0
C      1  0.5275840000000  0.5855380000000  0.4685570000000 1.0
C      1  0.5260770000000  0.4156120000000  0.5323350000000 1.0
C      1  0.4683020000000  0.4129270000000  0.4795670000000 1.0
C      1  0.4173490000000  0.4736300000000  0.4634480000000 1.0
C      1  0.4779090000000  0.4687950000000  0.4110790000000 1.0
C      1  0.4708640000000  0.5813280000000  0.5224440000000 1.0
C      1  0.5343730000000  0.4151450000000  0.5227810000000 1.0
C      1  0.5377130000000  0.5863980000000  0.4761780000000 1.0
C      1  0.4149060000000  0.5190320000000  0.5304310000000 1.0
C      1  0.5849890000000  0.4789900000000  0.5328870000000 1.0
C      1  0.5871080000000  0.5228220000000  0.4681370000000 1.0
C      1  0.4791350000000  0.5295200000000  0.5824790000000 1.0
C      1  0.5232840000000  0.4659840000000  0.5888760000000 1.0
C      1  0.5235750000000  0.5297940000000  0.4164280000000 1.0
C      1  0.5322220000000  0.4508530000000  0.5473360000000 1.0
C      1  0.5346200000000  0.5260840000000  0.4395870000000 1.0
C      1  0.4399680000000  0.5391210000000  0.5345760000000 1.0
C      1  0.5379780000000  0.5565050000000  0.4590470000000 1.0
C      1  0.4651500000000  0.5630260000000  0.5436290000000 1.0
C      1  0.4669490000000  0.4508670000000  0.4544630000000 1.0
C      1  0.5374290000000  0.4725170000000  0.5593010000000 1.0
C      1  0.4586670000000  0.4729620000000  0.4405970000000 1.0
C      1  0.4540850000000  0.5368890000000  0.5553980000000 1.0
C      1  0.4464160000000  0.4526790000000  0.4698780000000 1.0
C      1  0.5536790000000  0.4586130000000  0.5339140000000 1.0
C      1  0.5593070000000  0.5370230000000  0.4723310000000 1.0
C      1  0.5348410000000  0.5396910000000  0.4433600000000 1.0
C      1  0.5380390000000  0.4432850000000  0.5251200000000 1.0
C      1  0.4368270000000  0.5253390000000  0.5351160000000 1.0
C      1  0.5284250000000  0.4610230000000  0.5579190000000 1.0
C      1  0.4649110000000  0.5418400000000  0.5620660000000 1.0
C      1  0.4693500000000  0.4621360000000  0.4430750000000 1.0
C      1  0.5407380000000  0.5613080000000  0.4725060000000 1.0
C      1  0.4625750000000  0.4389750000000  0.4775880000000 1.0
C      1  0.4543940000000  0.5567030000000  0.5387760000000 1.0
C      1  0.4472030000000  0.4712240000000  0.4501230000000 1.0
C      1  0.5543570000000  0.5361870000000  0.4586280000000 1.0
C      1  0.5568460000000  0.4726570000000  0.5367960000000 1.0
C      1  0.5015100000000  0.4612170000000  0.4734350000000 1.0
C      1  0.4670860000000  0.5076430000000  0.4607910000000 1.0
C      1  0.4611990000000  0.4725020000000  0.5118050000000 1.0
C      1  0.5056290000000  0.5402440000000  0.5271050000000 1.0
C      1  0.4891590000000  0.5446660000000  0.4717740000000 1.0
C      1  0.4922310000000  0.4614170000000  0.5296530000000 1.0
C      1  0.4729600000000  0.4956540000000  0.5404870000000 1.0
C      1  0.5242390000000  0.4948110000000  0.4587610000000 1.0
C      1  0.5284390000000  0.5072090000000  0.5385880000000 1.0
C      1  0.4581470000000  0.5298650000000  0.4957040000000 1.0
C      1  0.5438990000000  0.5246340000000  0.5040910000000 1.0
C      1  0.5370620000000  0.4715900000000  0.4910820000000 1.0
C      1  0.5005470000000  0.4724390000000  0.4615510000000 1.0
C      1  0.4710980000000  0.4607820000000  0.5097170000000 1.0
C      1  0.4585160000000  0.5102960000000  0.4734450000000 1.0
C      1  0.5065290000000  0.5284830000000  0.5387450000000 1.0
C      1  0.4932040000000  0.4727040000000  0.5407870000000 1.0
C      1  0.4882070000000  0.5258580000000  0.4548620000000 1.0
C      1  0.4698700000000  0.5411740000000  0.4949670000000 1.0
C      1  0.5257890000000  0.4607670000000  0.4921170000000 1.0
C      1  0.5240720000000  0.5450640000000  0.5037000000000 1.0
C      1  0.4600040000000  0.4954750000000  0.5296480000000 1.0
C      1  0.5388980000000  0.5068670000000  0.5261060000000 1.0
C      1  0.5363500000000  0.4939360000000  0.4703480000000 1.0
C      1  0.4948650000000  0.5730480000000  0.4963500000000 1.0
C      1  0.5039920000000  0.4870970000000  0.5679210000000 1.0
C      1  0.5690630000000  0.4973780000000  0.4882410000000 1.0
C      1  0.4894280000000  0.4281800000000  0.5039030000000 1.0
C      1  0.5099600000000  0.4323700000000  0.5023960000000 1.0
C      1  0.5153670000000  0.5710230000000  0.4978170000000 1.0
C      1  0.4946670000000  0.5097560000000  0.4290770000000 1.0
C      1  0.5057680000000  0.5069740000000  0.5735890000000 1.0
C      1  0.4951040000000  0.4898350000000  0.4344400000000 1.0
C      1  0.5658190000000  0.4989040000000  0.5088790000000 1.0
C      1  0.4342860000000  0.4972990000000  0.4859420000000 1.0
C      1  0.4303020000000  0.4973460000000  0.5067050000000 1.0
C      1  0.4946670000000  0.4963830000000  0.5739360000000 1.0
C      1  0.5049910000000  0.5664950000000  0.4884040000000 1.0
C      1  0.5653390000000  0.4882190000000  0.4987060000000 1.0
C      1  0.4847990000000  0.5002790000000  0.4339310000000 1.0
C      1  0.5054920000000  0.4992700000000  0.4302920000000 1.0
C      1  0.5140800000000  0.4974340000000  0.5668430000000 1.0
C      1  0.4995950000000  0.4334460000000  0.5125620000000 1.0
C      1  0.5052780000000  0.5751320000000  0.5071420000000 1.0
C      1  0.5002820000000  0.4277180000000  0.4929290000000 1.0
C      1  0.5691260000000  0.5084140000000  0.4984010000000 1.0
C      1  0.4327620000000  0.4872690000000  0.4967230000000 1.0
C      1  0.4307430000000  0.5071930000000  0.4957160000000 1.0
C      1  0.5260290000000  0.4445830000000  0.5160550000000 1.0
C      1  0.5082800000000  0.5246310000000  0.4412870000000 1.0
C      1  0.4404010000000  0.5134240000000  0.5233550000000 1.0
C      1  0.5316950000000  0.5614830000000  0.4846210000000 1.0
C      1  0.4828120000000  0.5587850000000  0.5090380000000 1.0
C      1  0.4727230000000  0.4415350000000  0.4901790000000 1.0
C      1  0.5162500000000  0.4711280000000  0.5549840000000 1.0
C      1  0.4801210000000  0.4747020000000  0.4448700000000 1.0
C      1  0.4931160000000  0.5196300000000  0.5585560000000 1.0
C      1  0.4474130000000  0.4750900000000  0.4634710000000 1.0
C      1  0.5544410000000  0.4833570000000  0.5248740000000 1.0
C      1  0.5559760000000  0.5103170000000  0.4749890000000 1.0
C      1  0.5212310000000  0.5157210000000  0.4404560000000 1.0
C      1  0.5135400000000  0.4454790000000  0.5261260000000 1.0
C      1  0.4415440000000  0.5210890000000  0.5110250000000 1.0
C      1  0.5286370000000  0.4836310000000  0.5547170000000 1.0
C      1  0.4833310000000  0.5099300000000  0.5585550000000 1.0
C      1  0.4677920000000  0.4861500000000  0.4446110000000 1.0
C      1  0.5094340000000  0.5513660000000  0.4679840000000 1.0
C      1  0.4859060000000  0.4435030000000  0.4834110000000 1.0
C      1  0.4921810000000  0.5595770000000  0.5191640000000 1.0
C      1  0.4447910000000  0.4661690000000  0.4733640000000 1.0
C      1  0.5583320000000  0.5240520000000  0.4821850000000 1.0
C      1  0.5537590000000  0.4739620000000  0.5116400000000 1.0
C      1  0.4281570000000  0.5480820000000  0.5141910000000 1.0
C      1  0.5169970000000  0.4286200000000  0.5523900000000 1.0
C      1  0.5508350000000  0.5132910000000  0.4283280000000 1.0
C      1  0.4271200000000  0.4433700000000  0.4837930000000 1.0
C      1  0.5724210000000  0.4497100000000  0.5165000000000 1.0
C      1  0.5744840000000  0.5508960000000  0.4862940000000 1.0
C      1  0.5185750000000  0.5713840000000  0.4498990000000 1.0
C      1  0.4866420000000  0.5709570000000  0.5511870000000 1.0
C      1  0.4837960000000  0.4304020000000  0.4490080000000 1.0
C      1  0.5520560000000  0.4835150000000  0.5740530000000 1.0
C      1  0.4480940000000  0.4862550000000  0.4207420000000 1.0
C      1  0.4499680000000  0.5137370000000  0.5676440000000 1.0
C      1  0.4262060000000  0.5112290000000  0.5504050000000 1.0
C      1  0.5168370000000  0.5500910000000  0.4290700000000 1.0
C      1  0.5533520000000  0.4272860000000  0.5141970000000 1.0
C      1  0.4270240000000  0.4845740000000  0.4426570000000 1.0
C      1  0.5706440000000  0.5179760000000  0.4493650000000 1.0
C      1  0.5712020000000  0.4854840000000  0.5521570000000 1.0
C      1  0.5140920000000  0.4473270000000  0.5756940000000 1.0
C      1  0.4860940000000  0.5499920000000  0.5720000000000 1.0
C      1  0.4855290000000  0.4496560000000  0.4257260000000 1.0
C      1  0.5567180000000  0.5735140000000  0.4857990000000 1.0
C      1  0.4475780000000  0.4217370000000  0.4880470000000 1.0
C      1  0.4508730000000  0.5682370000000  0.5153810000000 1.0
C      1  0.5077140000000  0.4821000000000  0.4987230000000 1.0
C      1  0.5017440000000  0.5168740000000  0.4738790000000 1.0
C      1  0.4759930000000  0.5020300000000  0.5112480000000 1.0
C      1  0.5098340000000  0.5246680000000  0.4965400000000 1.0
C      1  0.4876530000000  0.5225210000000  0.4987750000000 1.0
C      1  0.4861260000000  0.4795740000000  0.4998710000000 1.0
C      1  0.4979060000000  0.4914360000000  0.5199740000000 1.0
C      1  0.4957280000000  0.4915460000000  0.4780570000000 1.0
C      1  0.4986670000000  0.5126490000000  0.5199330000000 1.0
C      1  0.4759150000000  0.5002540000000  0.4895600000000 1.0
C      1  0.5208610000000  0.4983060000000  0.5116210000000 1.0
C      1  0.5190580000000  0.5031620000000  0.4873170000000 1.0
C      1  0.5074320000000  0.5030740000000  0.4770070000000 1.0
C      1  0.4977210000000  0.4811500000000  0.5099710000000 1.0
C      1  0.4766290000000  0.5120740000000  0.4997290000000 1.0
C      1  0.5089050000000  0.5013570000000  0.5193840000000 1.0
C      1  0.4873220000000  0.5026710000000  0.5211850000000 1.0
C      1  0.4820850000000  0.4967510000000  0.4763720000000 1.0
C      1  0.4987780000000  0.5246680000000  0.4864760000000 1.0
C      1  0.4961670000000  0.4806370000000  0.4887150000000 1.0
C      1  0.4986490000000  0.5225550000000  0.5089310000000 1.0
C      1  0.4757800000000  0.4901000000000  0.5005600000000 1.0
C      1  0.5226970000000  0.5169250000000  0.4929370000000 1.0
C      1  0.5180720000000  0.4927040000000  0.4983410000000 1.0
C      1  0.5172250000000  0.5398580000000  0.4712250000000 1.0
C      1  0.4729720000000  0.5201380000000  0.5391890000000 1.0
C      1  0.5303860000000  0.4784540000000  0.5094970000000 1.0
C      1  0.5093570000000  0.4686890000000  0.5207940000000 1.0
C      1  0.4770890000000  0.4645250000000  0.4776600000000 1.0
C      1  0.4816240000000  0.5408280000000  0.5301480000000 1.0
C      1  0.4715540000000  0.4870670000000  0.4704470000000 1.0
C      1  0.5206360000000  0.4888070000000  0.5324130000000 1.0
C      1  0.5240600000000  0.5187160000000  0.4624250000000 1.0
C      1  0.5330840000000  0.5257130000000  0.4831330000000 1.0
C      1  0.4619540000000  0.5302920000000  0.5198990000000 1.0
C      1  0.4580900000000  0.4775570000000  0.4899500000000 1.0
C      1  0.5100020000000  0.4790900000000  0.5321120000000 1.0
C      1  0.4720590000000  0.5400820000000  0.5197000000000 1.0
C      1  0.5347440000000  0.5182660000000  0.4707890000000 1.0
C      1  0.5122190000000  0.5269780000000  0.4652070000000 1.0
C      1  0.4772860000000  0.4740560000000  0.4679160000000 1.0
C      1  0.4822690000000  0.5305960000000  0.5399290000000 1.0
C      1  0.4672870000000  0.4652740000000  0.4878570000000 1.0
C      1  0.5273420000000  0.5388090000000  0.4805370000000 1.0
C      1  0.5193090000000  0.4683850000000  0.5096960000000 1.0
C      1  0.5291120000000  0.4885650000000  0.5200190000000 1.0
C      1  0.4627850000000  0.5200830000000  0.5295100000000 1.0
C      1  0.4593150000000  0.4885660000000  0.4797390000000 1.0
C      1  0.4370080000000  0.4956370000000  0.4720120000000 1.0
C      1  0.4758070000000  0.4297280000000  0.5004710000000 1.0
C      1  0.4911130000000  0.4765870000000  0.4350760000000 1.0
C      1  0.4310860000000  0.5012000000000  0.5201980000000 1.0
C      1  0.5662660000000  0.5003820000000  0.4749260000000 1.0
C      1  0.5650560000000  0.4954150000000  0.5223890000000 1.0
C      1  0.4816990000000  0.5698440000000  0.4998040000000 1.0
C      1  0.5287800000000  0.5717920000000  0.4944320000000 1.0
C      1  0.5234400000000  0.4335230000000  0.5052420000000 1.0
C      1  0.5020200000000  0.5199470000000  0.5701390000000 1.0
C      1  0.4994660000000  0.5228980000000  0.4296860000000 1.0
C      1  0.5067140000000  0.4737460000000  0.5661410000000 1.0
C      1  0.4332600000000  0.4735690000000  0.4941090000000 1.0
C      1  0.4711700000000  0.4967340000000  0.4341890000000 1.0
C      1  0.4951520000000  0.4327320000000  0.4811490000000 1.0
C      1  0.4318300000000  0.5202990000000  0.5001470000000 1.0
C      1  0.5649000000000  0.4747000000000  0.5021390000000 1.0
C      1  0.5689660000000  0.5214250000000  0.4934410000000 1.0
C      1  0.4819650000000  0.5004610000000  0.5696450000000 1.0
C      1  0.5272880000000  0.4938720000000  0.5653280000000 1.0
C      1  0.5189200000000  0.5033600000000  0.4307850000000 1.0
C      1  0.5014010000000  0.5709130000000  0.5198520000000 1.0
C      1  0.5041470000000  0.4344000000000  0.5256320000000 1.0
C      1  0.5065170000000  0.5639510000000  0.4747570000000 1.0
C      1  0.5322040000000  0.5596360000000  0.5515200000000 1.0
C      1  0.5494740000000  0.5290590000000  0.5639870000000 1.0
C      1  0.5603300000000  0.5488060000000  0.5313640000000 1.0
C      1  0.5309780000000  0.4402110000000  0.4521340000000 1.0
C      1  0.4698390000000  0.4359280000000  0.5489090000000 1.0
C      1  0.4708160000000  0.5618240000000  0.4492080000000 1.0
C      1  0.5504630000000  0.4702290000000  0.4432740000000 1.0
C      1  0.4494360000000  0.4655750000000  0.5600850000000 1.0
C      1  0.4511010000000  0.5318020000000  0.4360400000000 1.0
C      1  0.5630920000000  0.4493240000000  0.4703350000000 1.0
C      1  0.4377950000000  0.4481390000000  0.5297870000000 1.0
C      1  0.4389140000000  0.5503170000000  0.4662820000000 1.0
C      1  0.5318840000000  0.5499310000000  0.5620840000000 1.0
C      1  0.5508230000000  0.5606520000000  0.5309340000000 1.0
C      1  0.5595110000000  0.5298280000000  0.5533920000000 1.0
C      1  0.5308730000000  0.4507620000000  0.4411550000000 1.0
C      1  0.4704810000000  0.5509210000000  0.4376520000000 1.0
C      1  0.4687600000000  0.4464920000000  0.5596430000000 1.0
C      1  0.5525450000000  0.4390910000000  0.4709140000000 1.0
C      1  0.4503440000000  0.5611650000000  0.4668830000000 1.0
C      1  0.4476290000000  0.4370290000000  0.5308670000000 1.0
C      1  0.5622130000000  0.4686640000000  0.4519950000000 1.0
C      1  0.4395040000000  0.5311900000000  0.4471280000000 1.0
C      1  0.4382830000000  0.4666710000000  0.5504360000000 1.0
C      1  0.5010420000000  0.4861770000000  0.4652440000000 1.0
C      1  0.4614190000000  0.5035910000000  0.4856010000000 1.0
C      1  0.4845760000000  0.4656740000000  0.5058960000000 1.0
C      1  0.5044080000000  0.5148280000000  0.5335600000000 1.0
C      1  0.4906900000000  0.5154960000000  0.4641180000000 1.0
C      1  0.4960450000000  0.4857450000000  0.5339530000000 1.0
C      1  0.4622880000000  0.4969000000000  0.5152410000000 1.0
C      1  0.5320600000000  0.4955770000000  0.4841880000000 1.0
C      1  0.5312010000000  0.5073430000000  0.5137470000000 1.0
C      1  0.4832940000000  0.5360560000000  0.4949030000000 1.0
C      1  0.5118980000000  0.5382270000000  0.5026290000000 1.0
C      1  0.5130050000000  0.4679030000000  0.4958270000000 1.0
C      1  0.5016150000000  0.4668800000000  0.4866360000000 1.0
C      1  0.4619000000000  0.4845010000000  0.5043670000000 1.0
C      1  0.4807690000000  0.5065730000000  0.4660850000000 1.0
C      1  0.5028920000000  0.5357970000000  0.5133340000000 1.0
C      1  0.4950290000000  0.4672730000000  0.5161120000000 1.0
C      1  0.4928820000000  0.5384150000000  0.4843360000000 1.0
C      1  0.4626400000000  0.5153340000000  0.4959180000000 1.0
C      1  0.5314010000000  0.4850210000000  0.4947880000000 1.0
C      1  0.5327590000000  0.5157930000000  0.5036100000000 1.0
C      1  0.4863140000000  0.4970960000000  0.5349530000000 1.0
C      1  0.5147640000000  0.5038660000000  0.5333690000000 1.0
C      1  0.5111880000000  0.4958840000000  0.4642860000000 1.0
C      1  0.5137680000000  0.5389650000000  0.4203670000000 1.0
C      1  0.4187000000000  0.5081200000000  0.5383940000000 1.0
C      1  0.5413170000000  0.4197420000000  0.5116870000000 1.0
C      1  0.5124430000000  0.4591020000000  0.5837900000000 1.0
C      1  0.4874740000000  0.4612670000000  0.4175360000000 1.0
C      1  0.4895770000000  0.5381240000000  0.5791460000000 1.0
C      1  0.4215210000000  0.4852780000000  0.4560010000000 1.0
C      1  0.5786450000000  0.4888530000000  0.5402660000000 1.0
C      1  0.5800590000000  0.5142260000000  0.4598610000000 1.0
C      1  0.5461740000000  0.5834460000000  0.4868840000000 1.0
C      1  0.4624810000000  0.5763260000000  0.5124990000000 1.0
C      1  0.4601310000000  0.4151450000000  0.4908070000000 1.0
C      1  0.5156830000000  0.4204350000000  0.5403640000000 1.0
C      1  0.4199700000000  0.5366360000000  0.5114310000000 1.0
C      1  0.5391170000000  0.5096840000000  0.4208280000000 1.0
C      1  0.5168330000000  0.5800290000000  0.4614010000000 1.0
C      1  0.4852760000000  0.4229200000000  0.4616500000000 1.0
C      1  0.4903820000000  0.5778490000000  0.5392810000000 1.0
C      1  0.4198620000000  0.4561170000000  0.4837980000000 1.0
C      1  0.5826630000000  0.5390730000000  0.4877210000000 1.0
C      1  0.5806600000000  0.4613990000000  0.5143100000000 1.0
C      1  0.5407450000000  0.4840480000000  0.5831490000000 1.0
C      1  0.4618390000000  0.5114230000000  0.5754510000000 1.0
C      1  0.4607910000000  0.4880570000000  0.4141760000000 1.0
C      1  0.5038420000000  0.5758720000000  0.5332000000000 1.0
C      1  0.5357180000000  0.4956470000000  0.5766360000000 1.0
C      1  0.5763150000000  0.5321760000000  0.4986010000000 1.0
C      1  0.4971860000000  0.4272180000000  0.4682540000000 1.0
C      1  0.5028970000000  0.4234040000000  0.5342770000000 1.0
C      1  0.5037450000000  0.5756040000000  0.4664810000000 1.0
C      1  0.5315370000000  0.4982280000000  0.4257760000000 1.0
C      1  0.4684400000000  0.4984000000000  0.5740660000000 1.0
C      1  0.4649890000000  0.4995310000000  0.4216890000000 1.0
C      1  0.5768360000000  0.4666450000000  0.5013340000000 1.0
C      1  0.4236590000000  0.4628100000000  0.4957990000000 1.0
C      1  0.4236020000000  0.5315540000000  0.4978730000000 1.0
C      1  0.5030250000000  0.5324930000000  0.5771490000000 1.0
C      1  0.5389210000000  0.5804640000000  0.4991560000000 1.0
C      1  0.5722550000000  0.5004110000000  0.5337950000000 1.0
C      1  0.4968220000000  0.4664550000000  0.4270130000000 1.0
C      1  0.4998590000000  0.5342170000000  0.4212500000000 1.0
C      1  0.5017180000000  0.4640380000000  0.5752540000000 1.0
C      1  0.5342120000000  0.4255260000000  0.5001350000000 1.0
C      1  0.4684610000000  0.5753430000000  0.4989550000000 1.0
C      1  0.4654710000000  0.4200820000000  0.5034460000000 1.0
C      1  0.5753050000000  0.4996370000000  0.4633450000000 1.0
C      1  0.4263460000000  0.4972780000000  0.4625660000000 1.0
C      1  0.4241280000000  0.4961190000000  0.5317670000000 1.0
C      1  0.5604430000000  0.5042540000000  0.4321390000000 1.0
C      1  0.4321780000000  0.5562750000000  0.5038320000000 1.0
C      1  0.5059530000000  0.4288980000000  0.5610580000000 1.0
C      1  0.5618480000000  0.4933850000000  0.5737840000000 1.0
C      1  0.4391440000000  0.4967360000000  0.4237980000000 1.0
C      1  0.4414990000000  0.5027370000000  0.5673120000000 1.0
C      1  0.4271320000000  0.4344380000000  0.4947330000000 1.0
C      1  0.5727980000000  0.4398610000000  0.5064500000000 1.0
C      1  0.5742290000000  0.5601680000000  0.4966050000000 1.0
C      1  0.5077190000000  0.5693920000000  0.4414300000000 1.0
C      1  0.4960810000000  0.5698240000000  0.5609590000000 1.0
C      1  0.4946560000000  0.4308850000000  0.4400450000000 1.0
C      1  0.5640590000000  0.4283330000000  0.5056580000000 1.0
C      1  0.4290950000000  0.5020620000000  0.5601520000000 1.0
C      1  0.5070650000000  0.5596440000000  0.4310470000000 1.0
C      1  0.5654560000000  0.5715160000000  0.4964240000000 1.0
C      1  0.4365780000000  0.4234000000000  0.4964460000000 1.0
C      1  0.4429440000000  0.5655350000000  0.5043910000000 1.0
C      1  0.4294760000000  0.4959110000000  0.4347350000000 1.0
C      1  0.5713590000000  0.5066050000000  0.4407380000000 1.0
C      1  0.5711330000000  0.4941690000000  0.5628540000000 1.0
C      1  0.5045340000000  0.4379110000000  0.5721860000000 1.0
C      1  0.4957110000000  0.5598100000000  0.5712240000000 1.0
C      1  0.4952880000000  0.4400570000000  0.4289770000000 1.0
C      1  0.4288650000000  0.4711960000000  0.5297470000000 1.0
C      1  0.5317540000000  0.4302410000000  0.4753540000000 1.0
C      1  0.4775240000000  0.5324250000000  0.4147600000000 1.0
C      1  0.4186880000000  0.5192860000000  0.4674840000000 1.0
C      1  0.5681910000000  0.5253290000000  0.5324900000000 1.0
C      1  0.5896560000000  0.4789670000000  0.4714670000000 1.0
C      1  0.5323810000000  0.5815710000000  0.5222220000000 1.0
C      1  0.4708450000000  0.5828680000000  0.4769270000000 1.0
C      1  0.4672660000000  0.4244970000000  0.5275300000000 1.0
C      1  0.4794920000000  0.4682090000000  0.5818150000000 1.0
C      1  0.5190240000000  0.4737810000000  0.4264710000000 1.0
C      1  0.5276500000000  0.5307240000000  0.5747220000000 1.0
C      1  0.4172460000000  0.5285800000000  0.4753160000000 1.0
C      1  0.5319020000000  0.4729820000000  0.4296710000000 1.0
C      1  0.4801830000000  0.4207220000000  0.5271860000000 1.0
C      1  0.4265140000000  0.4705290000000  0.5166280000000 1.0
C      1  0.5714880000000  0.5248830000000  0.5195970000000 1.0
C      1  0.5871870000000  0.4698200000000  0.4797100000000 1.0
C      1  0.5281100000000  0.5181000000000  0.5791770000000 1.0
C      1  0.4705250000000  0.4765540000000  0.5824410000000 1.0
C      1  0.4719240000000  0.5215370000000  0.4156630000000 1.0
C      1  0.4811880000000  0.5831100000000  0.4704210000000 1.0
C      1  0.5185690000000  0.4282400000000  0.4755000000000 1.0
C      1  0.5295260000000  0.5733860000000  0.5325260000000 1.0
C      1  0.4875900000000  0.4597560000000  0.5751900000000 1.0
C      1  0.5817310000000  0.4855450000000  0.4626200000000 1.0
C      1  0.4627280000000  0.5760200000000  0.4855070000000 1.0
C      1  0.4869930000000  0.5406630000000  0.4200640000000 1.0
C      1  0.5158330000000  0.5383770000000  0.5760240000000 1.0
C      1  0.5107850000000  0.4634140000000  0.4284410000000 1.0
C      1  0.5702720000000  0.5134460000000  0.5395620000000 1.0
C      1  0.4249820000000  0.5112670000000  0.4585940000000 1.0
C      1  0.4265520000000  0.4829610000000  0.5372050000000 1.0
C      1  0.4592880000000  0.4216430000000  0.5162700000000 1.0
C      1  0.5393660000000  0.4274750000000  0.4868870000000 1.0
C      1  0.5424160000000  0.5794550000000  0.5133450000000 1.0
C      1  0.4899180000000  0.5770810000000  0.4619090000000 1.0
C      1  0.5799760000000  0.4618410000000  0.4878380000000 1.0
C      1  0.4628910000000  0.4848820000000  0.5747130000000 1.0
C      1  0.4888650000000  0.4219830000000  0.5373770000000 1.0
C      1  0.5167150000000  0.5735670000000  0.5389490000000 1.0
C      1  0.5109200000000  0.4285230000000  0.4644100000000 1.0
C      1  0.5732610000000  0.5358030000000  0.5120970000000 1.0
C      1  0.4244890000000  0.4591820000000  0.5096040000000 1.0
C      1  0.4228120000000  0.5371870000000  0.4843180000000 1.0
C      1  0.4619570000000  0.5135140000000  0.4200650000000 1.0
C      1  0.5377500000000  0.4856650000000  0.4297430000000 1.0
C      1  0.5386090000000  0.5098060000000  0.5782210000000 1.0
C      1  0.4753740000000  0.4418340000000  0.4469830000000 1.0
C      1  0.4476250000000  0.4758750000000  0.4301990000000 1.0
C      1  0.4396080000000  0.4424310000000  0.4768300000000 1.0
C      1  0.4751900000000  0.5620820000000  0.5525750000000 1.0
C      1  0.5281900000000  0.5609390000000  0.4489840000000 1.0
C      1  0.5254450000000  0.4401140000000  0.5546510000000 1.0
C      1  0.4467660000000  0.5241210000000  0.5579730000000 1.0
C      1  0.5482220000000  0.5218470000000  0.4392970000000 1.0
C      1  0.5508310000000  0.4757710000000  0.5617020000000 1.0
C      1  0.4372010000000  0.5494610000000  0.5250240000000 1.0
C      1  0.5625090000000  0.5499640000000  0.4782950000000 1.0
C      1  0.5605020000000  0.4491280000000  0.5246070000000 1.0
C      1  0.4758160000000  0.4506040000000  0.4358180000000 1.0
C      1  0.4496140000000  0.4330980000000  0.4799640000000 1.0
C      1  0.4377080000000  0.4754140000000  0.4404020000000 1.0
C      1  0.4748720000000  0.5511600000000  0.5626030000000 1.0
C      1  0.5238150000000  0.4486150000000  0.5658130000000 1.0
C      1  0.5266650000000  0.5505900000000  0.4393520000000 1.0
C      1  0.4471880000000  0.5595250000000  0.5262810000000 1.0
C      1  0.5510180000000  0.4392150000000  0.5213930000000 1.0
C      1  0.5541890000000  0.5615870000000  0.4777900000000 1.0
C      1  0.4364200000000  0.5209540000000  0.5486800000000 1.0
C      1  0.5595670000000  0.4772530000000  0.5504660000000 1.0
C      1  0.5582840000000  0.5260060000000  0.4488740000000 1.0
C      1  0.4663070000000  0.5427210000000  0.4801830000000 1.0
C      1  0.4790650000000  0.4704480000000  0.5447320000000 1.0
C      1  0.5372050000000  0.4790480000000  0.4666730000000 1.0
C      1  0.4680810000000  0.4586450000000  0.5253610000000 1.0
C      1  0.5273900000000  0.4582160000000  0.4774500000000 1.0
C      1  0.5295690000000  0.5400150000000  0.5164510000000 1.0
C      1  0.4753680000000  0.5315850000000  0.4586020000000 1.0
C      1  0.5214880000000  0.5317050000000  0.5391810000000 1.0
C      1  0.5153760000000  0.4694750000000  0.4585880000000 1.0
C      1  0.5414520000000  0.5215070000000  0.5284050000000 1.0
C      1  0.4556240000000  0.5236700000000  0.4707960000000 1.0
C      1  0.4584290000000  0.4812890000000  0.5350910000000 1.0
C      1  0.4696970000000  0.4814030000000  0.5443510000000 1.0
C      1  0.4758180000000  0.5412520000000  0.4694110000000 1.0
C      1  0.5379070000000  0.4686250000000  0.4764480000000 1.0
C      1  0.4642010000000  0.5227330000000  0.4582740000000 1.0
C      1  0.5260150000000  0.4794500000000  0.4572100000000 1.0
C      1  0.5317840000000  0.5218610000000  0.5392770000000 1.0
C      1  0.4785390000000  0.4593380000000  0.5347030000000 1.0
C      1  0.5208750000000  0.5408180000000  0.5279840000000 1.0
C      1  0.5159200000000  0.4591010000000  0.4687500000000 1.0
C      1  0.5406200000000  0.5309200000000  0.5168170000000 1.0
C      1  0.4595280000000  0.4705860000000  0.5256420000000 1.0
C      1  0.4551150000000  0.5334330000000  0.4810350000000 1.0
C      1  0.5195290000000  0.5507450000000  0.5707760000000 1.0
C      1  0.5680870000000  0.5175900000000  0.5528730000000 1.0
C      1  0.5525600000000  0.5704260000000  0.5193480000000 1.0
C      1  0.5180720000000  0.4515090000000  0.4328860000000 1.0
C      1  0.4814960000000  0.4485340000000  0.5680900000000 1.0
C      1  0.4825030000000  0.5507740000000  0.4292790000000 1.0
C      1  0.5720520000000  0.4807580000000  0.4530680000000 1.0
C      1  0.4302800000000  0.4788470000000  0.5503380000000 1.0
C      1  0.4320930000000  0.5180830000000  0.4478260000000 1.0
C      1  0.5526810000000  0.4304040000000  0.4826700000000 1.0
C      1  0.4466510000000  0.4269740000000  0.5198340000000 1.0
C      1  0.4520920000000  0.5682310000000  0.4799250000000 1.0
C      1  0.5195360000000  0.5677750000000  0.5513580000000 1.0
C      1  0.5689140000000  0.5478730000000  0.5190240000000 1.0
C      1  0.5502430000000  0.5166800000000  0.5730350000000 1.0
C      1  0.5178240000000  0.4327810000000  0.4525040000000 1.0
C      1  0.4835810000000  0.5696750000000  0.4510770000000 1.0
C      1  0.4825030000000  0.4282350000000  0.5488190000000 1.0
C      1  0.5721140000000  0.4507420000000  0.4825870000000 1.0
C      1  0.4307530000000  0.5481400000000  0.4789240000000 1.0
C      1  0.4286680000000  0.4476000000000  0.5171590000000 1.0
C      1  0.5488600000000  0.4833310000000  0.4380690000000 1.0
C      1  0.4511100000000  0.5196680000000  0.4271410000000 1.0
C      1  0.4517470000000  0.4788870000000  0.5674760000000 1.0
C      1  0.4354140000000  0.4603940000000  0.5374140000000 1.0
C      1  0.5393010000000  0.4372300000000  0.4643450000000 1.0
C      1  0.4577770000000  0.4547060000000  0.5601120000000 1.0
C      1  0.5389840000000  0.4626040000000  0.4383710000000 1.0
C      1  0.4377590000000  0.5414820000000  0.4559240000000 1.0
C      1  0.5616380000000  0.5365220000000  0.5400230000000 1.0
C      1  0.5633120000000  0.4581200000000  0.4601600000000 1.0
C      1  0.4609670000000  0.4333740000000  0.5374800000000 1.0
C      1  0.4601270000000  0.5630060000000  0.4575360000000 1.0
C      1  0.5389830000000  0.5636630000000  0.5389020000000 1.0
C      1  0.4608610000000  0.5413120000000  0.4355520000000 1.0
C      1  0.5377550000000  0.5371140000000  0.5662660000000 1.0
C      1  0.4492200000000  0.5442590000000  0.5440180000000 1.0
C      1  0.5405530000000  0.4521680000000  0.5362980000000 1.0
C      1  0.5433850000000  0.5441090000000  0.4540570000000 1.0
C      1  0.4597240000000  0.4480630000000  0.4660740000000 1.0
END
