TITL C-3151192-8964-135 0.0193433419805626 1000000 -1675.77816537334 0 0 240 (C1) n - 1
REM
REM in /scratch/bkarasulu/Only-C240/Try4-Only-SYMOP24
REM
REM
REM
REM
REM
REM ./C.cell (018bbde761a0794ceee8127bb1f748ef)
REM
REM compiler GCC version 9.2.1 20190827 (Red Hat 9.2.1-1)
REM options -cpp -mtune=generic -march=x86-64 -g -O0 -fpre-include=/usr/include/finclude/math-vector-fortran.h
REM seed -507561126 1475545514 -984127048 535539658 2125482860 -1253760839 1944791603 -1703329537 -1168890865 754052909 400837290 -620167389 -130140109 -1961359734 1802623870 318635401 1204671323 -1953013157 -114788220 1424945848 1370161311 -1324209120 2072627238 -1409570548 1814815927 1051362845 -240762347 -716769652 -1169670314 68215893 1294136969 -1517751643 -1561830581
REM
CELL 1.54180  100.00000  100.00000  100.00000   90.00000   90.00000   90.00000
LATT -1
SFAC C  
C      1  0.4824630000000  0.5689530000000  0.4994970000000 1.0
C      1  0.5589740000000  0.4910790000000  0.4818250000000 1.0
C      1  0.4992500000000  0.4752240000000  0.5622860000000 1.0
C      1  0.5173380000000  0.4386380000000  0.4888130000000 1.0
C      1  0.4810070000000  0.4407710000000  0.5054170000000 1.0
C      1  0.5169180000000  0.5596690000000  0.5093600000000 1.0
C      1  0.4402320000000  0.5112090000000  0.4804490000000 1.0
C      1  0.5582350000000  0.5084060000000  0.5172480000000 1.0
C      1  0.4338880000000  0.4991800000000  0.5181990000000 1.0
C      1  0.5162080000000  0.5076480000000  0.5725600000000 1.0
C      1  0.4936170000000  0.5158790000000  0.4401950000000 1.0
C      1  0.5088830000000  0.4808270000000  0.4403980000000 1.0
C      1  0.5588060000000  0.4812520000000  0.4922510000000 1.0
C      1  0.4919320000000  0.5705590000000  0.4907940000000 1.0
C      1  0.4944510000000  0.4831530000000  0.5721960000000 1.0
C      1  0.4402890000000  0.5215880000000  0.4908040000000 1.0
C      1  0.4311270000000  0.4922590000000  0.5063480000000 1.0
C      1  0.5574630000000  0.5182290000000  0.5067390000000 1.0
C      1  0.5072780000000  0.4399610000000  0.4785740000000 1.0
C      1  0.5062840000000  0.5602900000000  0.5198460000000 1.0
C      1  0.4914130000000  0.4391950000000  0.5155990000000 1.0
C      1  0.5249800000000  0.5037070000000  0.5629060000000 1.0
C      1  0.5192990000000  0.4908500000000  0.4404980000000 1.0
C      1  0.4829950000000  0.5057950000000  0.4406760000000 1.0
C      1  0.4828970000000  0.5515030000000  0.4588880000000 1.0
C      1  0.5522460000000  0.4680460000000  0.4859870000000 1.0
C      1  0.4595160000000  0.4773790000000  0.5483210000000 1.0
C      1  0.5139730000000  0.4469080000000  0.4671210000000 1.0
C      1  0.4874990000000  0.4453000000000  0.5292170000000 1.0
C      1  0.5128860000000  0.5543640000000  0.5312940000000 1.0
C      1  0.4487120000000  0.5333600000000  0.4864770000000 1.0
C      1  0.5508890000000  0.5308430000000  0.5132100000000 1.0
C      1  0.4493560000000  0.4640890000000  0.5218160000000 1.0
C      1  0.5334780000000  0.5134710000000  0.5542150000000 1.0
C      1  0.4698590000000  0.5131380000000  0.4462030000000 1.0
C      1  0.5316060000000  0.4839830000000  0.4474240000000 1.0
C      1  0.5526320000000  0.4840230000000  0.4694210000000 1.0
C      1  0.4603020000000  0.5500080000000  0.4753740000000 1.0
C      1  0.4895040000000  0.4653430000000  0.5541910000000 1.0
C      1  0.4470550000000  0.5153570000000  0.4675930000000 1.0
C      1  0.4337140000000  0.4921970000000  0.5303050000000 1.0
C      1  0.5522220000000  0.5150050000000  0.5301980000000 1.0
C      1  0.5304480000000  0.4457040000000  0.4850690000000 1.0
C      1  0.5295990000000  0.5527680000000  0.5145440000000 1.0
C      1  0.4696330000000  0.4463020000000  0.5130350000000 1.0
C      1  0.5218930000000  0.5377030000000  0.5511580000000 1.0
C      1  0.5149730000000  0.4684550000000  0.4471230000000 1.0
C      1  0.4864250000000  0.5281620000000  0.4442830000000 1.0
C      1  0.5087730000000  0.4999420000000  0.5382070000000 1.0
C      1  0.4966170000000  0.5340120000000  0.5101040000000 1.0
C      1  0.5278110000000  0.5096950000000  0.4998290000000 1.0
C      1  0.4889940000000  0.4990920000000  0.5423400000000 1.0
C      1  0.5099650000000  0.5013270000000  0.4703850000000 1.0
C      1  0.4903040000000  0.5010360000000  0.4697660000000 1.0
C      1  0.4994590000000  0.4691030000000  0.5102830000000 1.0
C      1  0.4992940000000  0.4693650000000  0.4904240000000 1.0
C      1  0.4975620000000  0.5372050000000  0.4895810000000 1.0
C      1  0.4643660000000  0.4913440000000  0.5010370000000 1.0
C      1  0.5290200000000  0.4893810000000  0.5007870000000 1.0
C      1  0.4689560000000  0.5118300000000  0.5010370000000 1.0
C      1  0.4990870000000  0.5097710000000  0.5423100000000 1.0
C      1  0.5277950000000  0.4999920000000  0.5103070000000 1.0
C      1  0.5066680000000  0.5326320000000  0.4998110000000 1.0
C      1  0.4990960000000  0.4895970000000  0.5377680000000 1.0
C      1  0.4999860000000  0.5115750000000  0.4693210000000 1.0
C      1  0.5002830000000  0.4910080000000  0.4705340000000 1.0
C      1  0.4644550000000  0.5014280000000  0.5110520000000 1.0
C      1  0.4678500000000  0.5013970000000  0.4912770000000 1.0
C      1  0.5292290000000  0.4990990000000  0.4905540000000 1.0
C      1  0.4889010000000  0.4705060000000  0.5002280000000 1.0
C      1  0.4874760000000  0.5390100000000  0.4997170000000 1.0
C      1  0.5092010000000  0.4675920000000  0.5003380000000 1.0
C      1  0.5308200000000  0.5440910000000  0.4620300000000 1.0
C      1  0.5522050000000  0.4647320000000  0.5266850000000 1.0
C      1  0.4588100000000  0.5306930000000  0.5443660000000 1.0
C      1  0.4752590000000  0.4514560000000  0.4605950000000 1.0
C      1  0.5339140000000  0.4531580000000  0.5391470000000 1.0
C      1  0.4714190000000  0.5497700000000  0.5347540000000 1.0
C      1  0.4513860000000  0.5392580000000  0.5227370000000 1.0
C      1  0.5499930000000  0.5334540000000  0.4711720000000 1.0
C      1  0.4551030000000  0.4634300000000  0.4687510000000 1.0
C      1  0.5427740000000  0.4740320000000  0.5478890000000 1.0
C      1  0.4659450000000  0.4714910000000  0.4489230000000 1.0
C      1  0.5384570000000  0.5231260000000  0.4510620000000 1.0
C      1  0.5495950000000  0.5229550000000  0.4614480000000 1.0
C      1  0.4617770000000  0.5497560000000  0.5238120000000 1.0
C      1  0.5329030000000  0.4634030000000  0.5484970000000 1.0
C      1  0.4543050000000  0.4685880000000  0.4557130000000 1.0
C      1  0.4510110000000  0.5291930000000  0.5328840000000 1.0
C      1  0.5518310000000  0.4752350000000  0.5365100000000 1.0
C      1  0.5436950000000  0.4535270000000  0.5285510000000 1.0
C      1  0.5437170000000  0.5450810000000  0.4673460000000 1.0
C      1  0.4651010000000  0.4526670000000  0.4707790000000 1.0
C      1  0.4689930000000  0.5408540000000  0.5452400000000 1.0
C      1  0.4761900000000  0.4615550000000  0.4496900000000 1.0
C      1  0.5284890000000  0.5334080000000  0.4516590000000 1.0
C      1  0.4459580000000  0.5351580000000  0.5101140000000 1.0
C      1  0.5318080000000  0.5108100000000  0.4465570000000 1.0
C      1  0.5226140000000  0.4501230000000  0.5297870000000 1.0
C      1  0.5531540000000  0.4701980000000  0.5130570000000 1.0
C      1  0.4506730000000  0.4725790000000  0.4793040000000 1.0
C      1  0.5505300000000  0.5289320000000  0.4854490000000 1.0
C      1  0.4709570000000  0.4854670000000  0.4478690000000 1.0
C      1  0.5359470000000  0.4858810000000  0.5523710000000 1.0
C      1  0.4679470000000  0.5204820000000  0.5494310000000 1.0
C      1  0.4853370000000  0.5517650000000  0.5314140000000 1.0
C      1  0.5204360000000  0.5490020000000  0.4710590000000 1.0
C      1  0.4875420000000  0.4473550000000  0.4672150000000 1.0
C      1  0.5328920000000  0.4492570000000  0.5189120000000 1.0
C      1  0.5147320000000  0.5287930000000  0.4481190000000 1.0
C      1  0.4482210000000  0.5159540000000  0.5287020000000 1.0
C      1  0.4674950000000  0.5552040000000  0.5122140000000 1.0
C      1  0.4697570000000  0.4495140000000  0.4845510000000 1.0
C      1  0.5233860000000  0.5525370000000  0.4850840000000 1.0
C      1  0.4888710000000  0.4684400000000  0.4467270000000 1.0
C      1  0.4785120000000  0.5308980000000  0.5503940000000 1.0
C      1  0.5192240000000  0.4675270000000  0.5514550000000 1.0
C      1  0.5530260000000  0.4882420000000  0.5297310000000 1.0
C      1  0.5532550000000  0.5107110000000  0.4688280000000 1.0
C      1  0.4472560000000  0.4864100000000  0.4754920000000 1.0
C      1  0.4637580000000  0.5478880000000  0.5006520000000 1.0
C      1  0.5405780000000  0.5059200000000  0.4692900000000 1.0
C      1  0.5103180000000  0.4667990000000  0.5411020000000 1.0
C      1  0.5320520000000  0.4577410000000  0.5081090000000 1.0
C      1  0.4661380000000  0.4592170000000  0.4934270000000 1.0
C      1  0.5286080000000  0.5415870000000  0.4917600000000 1.0
C      1  0.4582610000000  0.4923610000000  0.4696360000000 1.0
C      1  0.5402780000000  0.4931160000000  0.5302600000000 1.0
C      1  0.4577560000000  0.5061440000000  0.5334440000000 1.0
C      1  0.4916190000000  0.5320140000000  0.5455810000000 1.0
C      1  0.5061650000000  0.5338740000000  0.4574220000000 1.0
C      1  0.4924800000000  0.4701950000000  0.4598130000000 1.0
C      1  0.5407450000000  0.4684000000000  0.5077930000000 1.0
C      1  0.5079680000000  0.5436590000000  0.4675400000000 1.0
C      1  0.4666520000000  0.5073240000000  0.5444850000000 1.0
C      1  0.4513840000000  0.5411630000000  0.4989520000000 1.0
C      1  0.4564760000000  0.4694660000000  0.4918520000000 1.0
C      1  0.5385370000000  0.5317350000000  0.4916150000000 1.0
C      1  0.4924610000000  0.4600060000000  0.4689470000000 1.0
C      1  0.4928630000000  0.5402600000000  0.5342840000000 1.0
C      1  0.5111940000000  0.4584680000000  0.5302300000000 1.0
C      1  0.5321490000000  0.4926010000000  0.5410930000000 1.0
C      1  0.5313450000000  0.5060260000000  0.4592360000000 1.0
C      1  0.4680480000000  0.4918720000000  0.4596760000000 1.0
C      1  0.5026590000000  0.4661780000000  0.4773470000000 1.0
C      1  0.4622830000000  0.4775530000000  0.5032810000000 1.0
C      1  0.4767820000000  0.5025690000000  0.4665570000000 1.0
C      1  0.4963230000000  0.5382820000000  0.4755540000000 1.0
C      1  0.5007880000000  0.5349810000000  0.5233440000000 1.0
C      1  0.4988740000000  0.4656120000000  0.5236180000000 1.0
C      1  0.5312770000000  0.5230750000000  0.5021170000000 1.0
C      1  0.4692080000000  0.5242750000000  0.4947780000000 1.0
C      1  0.5327720000000  0.4761420000000  0.4979030000000 1.0
C      1  0.5225210000000  0.4966310000000  0.4662370000000 1.0
C      1  0.4760350000000  0.4963130000000  0.5454010000000 1.0
C      1  0.5222440000000  0.5026830000000  0.5364820000000 1.0
C      1  0.4656710000000  0.5031760000000  0.4774000000000 1.0
C      1  0.4756390000000  0.4667500000000  0.5031070000000 1.0
C      1  0.5031280000000  0.4777890000000  0.4666520000000 1.0
C      1  0.5333390000000  0.4960580000000  0.4776390000000 1.0
C      1  0.5317010000000  0.5031660000000  0.5233330000000 1.0
C      1  0.4623150000000  0.4966650000000  0.5238910000000 1.0
C      1  0.5203910000000  0.5342010000000  0.5024050000000 1.0
C      1  0.5224340000000  0.4640100000000  0.4981550000000 1.0
C      1  0.4739400000000  0.5391550000000  0.4951120000000 1.0
C      1  0.4968350000000  0.5249840000000  0.4657920000000 1.0
C      1  0.4985240000000  0.4757440000000  0.5363340000000 1.0
C      1  0.5023800000000  0.5226360000000  0.5454460000000 1.0
C      1  0.5434710000000  0.5539420000000  0.5159160000000 1.0
C      1  0.5551120000000  0.5175370000000  0.5436380000000 1.0
C      1  0.5230480000000  0.5502850000000  0.5526750000000 1.0
C      1  0.4573900000000  0.4427380000000  0.5176110000000 1.0
C      1  0.5441870000000  0.4446040000000  0.4838680000000 1.0
C      1  0.4487800000000  0.5565210000000  0.4738380000000 1.0
C      1  0.4374090000000  0.4847100000000  0.5397420000000 1.0
C      1  0.5542980000000  0.4812880000000  0.4558370000000 1.0
C      1  0.4465530000000  0.5157030000000  0.4536200000000 1.0
C      1  0.4886500000000  0.4513980000000  0.5531290000000 1.0
C      1  0.5175450000000  0.4549540000000  0.4449500000000 1.0
C      1  0.4840860000000  0.5406080000000  0.4392740000000 1.0
C      1  0.5524960000000  0.5445350000000  0.5157280000000 1.0
C      1  0.5179350000000  0.5577630000000  0.5431130000000 1.0
C      1  0.5470830000000  0.5166410000000  0.5538330000000 1.0
C      1  0.4482160000000  0.4511820000000  0.5219370000000 1.0
C      1  0.4462220000000  0.5435230000000  0.4762070000000 1.0
C      1  0.5531520000000  0.4542250000000  0.4843610000000 1.0
C      1  0.4879240000000  0.4432060000000  0.5429020000000 1.0
C      1  0.4825820000000  0.5519350000000  0.4458570000000 1.0
C      1  0.5170440000000  0.4454800000000  0.4537070000000 1.0
C      1  0.4470850000000  0.4791890000000  0.5474090000000 1.0
C      1  0.4560450000000  0.5153270000000  0.4446560000000 1.0
C      1  0.5453350000000  0.4814110000000  0.4464130000000 1.0
C      1  0.5148550000000  0.5376540000000  0.5276380000000 1.0
C      1  0.5365430000000  0.5274340000000  0.5167230000000 1.0
C      1  0.5272730000000  0.5170000000000  0.5402990000000 1.0
C      1  0.4844170000000  0.4603640000000  0.5279620000000 1.0
C      1  0.5165890000000  0.4609050000000  0.4724730000000 1.0
C      1  0.4818990000000  0.5406290000000  0.4685780000000 1.0
C      1  0.4617350000000  0.4718470000000  0.5187360000000 1.0
C      1  0.5376730000000  0.4714320000000  0.4836570000000 1.0
C      1  0.4623820000000  0.5275880000000  0.4815370000000 1.0
C      1  0.4720580000000  0.4812400000000  0.5408140000000 1.0
C      1  0.5274610000000  0.4822240000000  0.4617540000000 1.0
C      1  0.4725260000000  0.5165810000000  0.4605860000000 1.0
C      1  0.5371590000000  0.5171330000000  0.5278110000000 1.0
C      1  0.5256230000000  0.5382760000000  0.5171040000000 1.0
C      1  0.5167590000000  0.5284980000000  0.5408840000000 1.0
C      1  0.4664980000000  0.4834760000000  0.5269800000000 1.0
C      1  0.4612370000000  0.5171140000000  0.4712370000000 1.0
C      1  0.5380500000000  0.4819420000000  0.4729470000000 1.0
C      1  0.4735220000000  0.4610620000000  0.5174190000000 1.0
C      1  0.4705050000000  0.5404140000000  0.4785920000000 1.0
C      1  0.5269550000000  0.4602020000000  0.4834570000000 1.0
C      1  0.4843200000000  0.4704920000000  0.5406650000000 1.0
C      1  0.4830670000000  0.5270630000000  0.4596650000000 1.0
C      1  0.5168630000000  0.4720510000000  0.4617040000000 1.0
C      1  0.5036910000000  0.4349530000000  0.5105020000000 1.0
C      1  0.4398740000000  0.5223440000000  0.5059710000000 1.0
C      1  0.5191370000000  0.5057400000000  0.4401440000000 1.0
C      1  0.4910100000000  0.5602250000000  0.5209310000000 1.0
C      1  0.5044080000000  0.5676840000000  0.4893250000000 1.0
C      1  0.4920520000000  0.4402640000000  0.4794340000000 1.0
C      1  0.5593170000000  0.4824980000000  0.5070330000000 1.0
C      1  0.4327810000000  0.4918100000000  0.4940660000000 1.0
C      1  0.5576040000000  0.5170990000000  0.4919360000000 1.0
C      1  0.4832320000000  0.4911760000000  0.4408660000000 1.0
C      1  0.5244130000000  0.4884660000000  0.5610050000000 1.0
C      1  0.4987220000000  0.4925780000000  0.5800620000000 1.0
C      1  0.4396530000000  0.5128450000000  0.5173320000000 1.0
C      1  0.5124010000000  0.4345860000000  0.5011350000000 1.0
C      1  0.5088410000000  0.5161620000000  0.4411870000000 1.0
C      1  0.5592690000000  0.4934890000000  0.5170660000000 1.0
C      1  0.5592160000000  0.5060600000000  0.4819500000000 1.0
C      1  0.4391900000000  0.4965070000000  0.4827870000000 1.0
C      1  0.4799610000000  0.5630420000000  0.5114910000000 1.0
C      1  0.4815760000000  0.4416640000000  0.4900200000000 1.0
C      1  0.5152190000000  0.5608920000000  0.4945780000000 1.0
C      1  0.4940130000000  0.4810610000000  0.4400440000000 1.0
C      1  0.5073170000000  0.5023160000000  0.5804330000000 1.0
C      1  0.5145750000000  0.4779260000000  0.5601600000000 1.0
END
