TITL C-3151192-8964-131 1.83606250678629 1000000 -3665.57480153419 0 0 520 (C1) n - 1
REM
REM in /scratch/bkarasulu/Only-C240/Try4-Only-SYMOP24
REM
REM
REM
REM
REM
REM ./C.cell (018bbde761a0794ceee8127bb1f748ef)
REM
REM compiler GCC version 9.2.1 20190827 (Red Hat 9.2.1-1)
REM options -cpp -mtune=generic -march=x86-64 -g -O0 -fpre-include=/usr/include/finclude/math-vector-fortran.h
REM seed 370233152 343094218 1093452993 481968413 1299553105 -2111276778 1146726603 436405163 -399021409 2010150328 1062097942 -453630681 873560892 -1483241024 926546715 1191498621 -1962250709 -1633321427 1408476322 703739222 283638616 -2126215185 -1792790210 -1221432710 734139536 -1844182130 -1770264233 -947681526 2003656410 -2144072633 1803811275 -391517678 -1851338084
REM
CELL 1.54180  100.00000  100.00000  100.00000   90.00000   90.00000   90.00000
LATT -1
SFAC C  
C      1  0.4383980000000  0.5423050000000  0.5488920000000 1.0
C      1  0.5467720000000  0.4357860000000  0.5364530000000 1.0
C      1  0.5398520000000  0.5531670000000  0.4397010000000 1.0
C      1  0.5609250000000  0.5439800000000  0.4493210000000 1.0
C      1  0.4403090000000  0.4571040000000  0.4524460000000 1.0
C      1  0.5588570000000  0.4549590000000  0.5482880000000 1.0
C      1  0.4517610000000  0.4382310000000  0.4643950000000 1.0
C      1  0.5497190000000  0.5631760000000  0.4606450000000 1.0
C      1  0.4493620000000  0.5614610000000  0.5375900000000 1.0
C      1  0.4587980000000  0.5530690000000  0.5591270000000 1.0
C      1  0.5380200000000  0.4450430000000  0.5577360000000 1.0
C      1  0.4609340000000  0.4466230000000  0.4427400000000 1.0
C      1  0.5507730000000  0.5438070000000  0.4390880000000 1.0
C      1  0.5367560000000  0.4355780000000  0.5466480000000 1.0
C      1  0.4388600000000  0.5513460000000  0.5377930000000 1.0
C      1  0.4484220000000  0.5430080000000  0.5593460000000 1.0
C      1  0.4503110000000  0.4564640000000  0.4421180000000 1.0
C      1  0.5488020000000  0.4549060000000  0.5583770000000 1.0
C      1  0.4618070000000  0.4374050000000  0.4539630000000 1.0
C      1  0.4591980000000  0.5624470000000  0.5482840000000 1.0
C      1  0.5393160000000  0.5627780000000  0.4506210000000 1.0
C      1  0.5605440000000  0.5536030000000  0.4601100000000 1.0
C      1  0.5579260000000  0.4451990000000  0.5375610000000 1.0
C      1  0.4409640000000  0.4481880000000  0.4636860000000 1.0
C      1  0.4286370000000  0.5491110000000  0.4989200000000 1.0
C      1  0.4963960000000  0.4286830000000  0.5474750000000 1.0
C      1  0.5532910000000  0.5036030000000  0.4271460000000 1.0
C      1  0.5711560000000  0.5536890000000  0.4999750000000 1.0
C      1  0.4301240000000  0.4505810000000  0.5017170000000 1.0
C      1  0.5693830000000  0.4457820000000  0.4986400000000 1.0
C      1  0.5020290000000  0.4296780000000  0.4527210000000 1.0
C      1  0.4997040000000  0.5708450000000  0.4496420000000 1.0
C      1  0.4996120000000  0.5723480000000  0.5509310000000 1.0
C      1  0.4471650000000  0.5038070000000  0.5723110000000 1.0
C      1  0.5518380000000  0.4956660000000  0.5711050000000 1.0
C      1  0.4493140000000  0.4957650000000  0.4288010000000 1.0
C      1  0.5006920000000  0.5518650000000  0.4290630000000 1.0
C      1  0.5467480000000  0.4287330000000  0.4964140000000 1.0
C      1  0.4276720000000  0.5028850000000  0.5525190000000 1.0
C      1  0.4988540000000  0.5534810000000  0.5711620000000 1.0
C      1  0.4994880000000  0.4479910000000  0.4305960000000 1.0
C      1  0.4991300000000  0.4456790000000  0.5693660000000 1.0
C      1  0.4514700000000  0.4305990000000  0.5035910000000 1.0
C      1  0.4483430000000  0.5693710000000  0.4984420000000 1.0
C      1  0.5513680000000  0.5721720000000  0.5007010000000 1.0
C      1  0.5725980000000  0.5037030000000  0.4470960000000 1.0
C      1  0.5706460000000  0.4956650000000  0.5522990000000 1.0
C      1  0.4291290000000  0.4967070000000  0.4479640000000 1.0
C      1  0.5220550000000  0.4334590000000  0.5413830000000 1.0
C      1  0.5466570000000  0.5294890000000  0.4350780000000 1.0
C      1  0.4353180000000  0.5449940000000  0.5236870000000 1.0
C      1  0.4765330000000  0.4347880000000  0.4589690000000 1.0
C      1  0.5249480000000  0.5653630000000  0.4559310000000 1.0
C      1  0.4737080000000  0.5656020000000  0.5437630000000 1.0
C      1  0.4531010000000  0.5291450000000  0.5635050000000 1.0
C      1  0.5448190000000  0.4694830000000  0.5627900000000 1.0
C      1  0.4546450000000  0.4705980000000  0.4376680000000 1.0
C      1  0.5645250000000  0.5483210000000  0.4742260000000 1.0
C      1  0.4370960000000  0.4545870000000  0.4773930000000 1.0
C      1  0.5621240000000  0.4507750000000  0.5241220000000 1.0
C      1  0.5412000000000  0.4339300000000  0.5219680000000 1.0
C      1  0.4348890000000  0.5279580000000  0.5448750000000 1.0
C      1  0.5258930000000  0.5474440000000  0.4358270000000 1.0
C      1  0.4572290000000  0.4359170000000  0.4785860000000 1.0
C      1  0.4547770000000  0.5641420000000  0.5235000000000 1.0
C      1  0.5448100000000  0.5662310000000  0.4750320000000 1.0
C      1  0.5646140000000  0.5297310000000  0.4537190000000 1.0
C      1  0.5635030000000  0.4696540000000  0.5444030000000 1.0
C      1  0.4364200000000  0.4715870000000  0.4560720000000 1.0
C      1  0.4729850000000  0.5483320000000  0.5632130000000 1.0
C      1  0.4746140000000  0.4517930000000  0.4382880000000 1.0
C      1  0.5246540000000  0.4504510000000  0.5621230000000 1.0
C      1  0.4900410000000  0.4616280000000  0.4806430000000 1.0
C      1  0.4783130000000  0.4847360000000  0.4652010000000 1.0
C      1  0.4582640000000  0.4810110000000  0.4916450000000 1.0
C      1  0.5104040000000  0.4615110000000  0.5199980000000 1.0
C      1  0.4895420000000  0.5396750000000  0.5208150000000 1.0
C      1  0.5146360000000  0.5362930000000  0.4788870000000 1.0
C      1  0.5225820000000  0.4848850000000  0.5354720000000 1.0
C      1  0.4779950000000  0.5159450000000  0.5359270000000 1.0
C      1  0.5216500000000  0.5115820000000  0.4581980000000 1.0
C      1  0.5424400000000  0.4797630000000  0.5099370000000 1.0
C      1  0.4583530000000  0.5199040000000  0.5092280000000 1.0
C      1  0.5404240000000  0.5229360000000  0.4888490000000 1.0
C      1  0.4781170000000  0.4662410000000  0.4869780000000 1.0
C      1  0.4619920000000  0.4870790000000  0.4797980000000 1.0
C      1  0.4896400000000  0.4780900000000  0.4606480000000 1.0
C      1  0.5224630000000  0.4658900000000  0.5137440000000 1.0
C      1  0.5215300000000  0.5406020000000  0.4903410000000 1.0
C      1  0.4777630000000  0.5347710000000  0.5143970000000 1.0
C      1  0.5386610000000  0.4864010000000  0.5213320000000 1.0
C      1  0.5354050000000  0.5166830000000  0.4772350000000 1.0
C      1  0.4617350000000  0.5136350000000  0.5211110000000 1.0
C      1  0.5112060000000  0.4784950000000  0.5402690000000 1.0
C      1  0.5138320000000  0.5221690000000  0.4620990000000 1.0
C      1  0.4893190000000  0.5228320000000  0.5401010000000 1.0
C      1  0.4685420000000  0.5135110000000  0.5719430000000 1.0
C      1  0.5731370000000  0.4663210000000  0.5096590000000 1.0
C      1  0.5082160000000  0.5731740000000  0.4733520000000 1.0
C      1  0.5318560000000  0.5130970000000  0.4257920000000 1.0
C      1  0.4716120000000  0.4859000000000  0.4282200000000 1.0
C      1  0.5291590000000  0.4860800000000  0.5724550000000 1.0
C      1  0.4262770000000  0.4741590000000  0.4926000000000 1.0
C      1  0.5751690000000  0.5312920000000  0.4897620000000 1.0
C      1  0.4257150000000  0.5254370000000  0.5078990000000 1.0
C      1  0.4907120000000  0.5734790000000  0.5284760000000 1.0
C      1  0.5037960000000  0.4264860000000  0.5242150000000 1.0
C      1  0.4947840000000  0.4272330000000  0.4761730000000 1.0
C      1  0.5721880000000  0.5135360000000  0.4685280000000 1.0
C      1  0.5105720000000  0.4662090000000  0.5744930000000 1.0
C      1  0.4720050000000  0.5725010000000  0.5071770000000 1.0
C      1  0.4267730000000  0.5109590000000  0.5304410000000 1.0
C      1  0.4274750000000  0.4887360000000  0.4700540000000 1.0
C      1  0.5745120000000  0.4864920000000  0.5290900000000 1.0
C      1  0.4887790000000  0.4697360000000  0.4275220000000 1.0
C      1  0.4885090000000  0.5324540000000  0.5724290000000 1.0
C      1  0.5107850000000  0.5291500000000  0.4258830000000 1.0
C      1  0.5283430000000  0.5753820000000  0.4918030000000 1.0
C      1  0.5233810000000  0.4278820000000  0.5044780000000 1.0
C      1  0.4749490000000  0.4283790000000  0.4957290000000 1.0
C      1  0.5016110000000  0.5741000000000  0.5373330000000 1.0
C      1  0.5386310000000  0.4975450000000  0.5739880000000 1.0
C      1  0.5743350000000  0.5405460000000  0.5012250000000 1.0
C      1  0.4975660000000  0.5726860000000  0.4630930000000 1.0
C      1  0.5054380000000  0.4272620000000  0.4658850000000 1.0
C      1  0.4930010000000  0.4265180000000  0.5342920000000 1.0
C      1  0.4627090000000  0.4974150000000  0.4258250000000 1.0
C      1  0.5398910000000  0.5018770000000  0.4238930000000 1.0
C      1  0.4607710000000  0.5023610000000  0.5750220000000 1.0
C      1  0.4258480000000  0.5356380000000  0.4971200000000 1.0
C      1  0.5740500000000  0.4589100000000  0.4979660000000 1.0
C      1  0.4265400000000  0.4639440000000  0.5033100000000 1.0
C      1  0.5379740000000  0.5741080000000  0.5027150000000 1.0
C      1  0.5734720000000  0.4976020000000  0.5391570000000 1.0
C      1  0.5000160000000  0.5399350000000  0.5743840000000 1.0
C      1  0.4617340000000  0.5715540000000  0.4966380000000 1.0
C      1  0.4647040000000  0.4275830000000  0.5066550000000 1.0
C      1  0.5334560000000  0.4266920000000  0.4932890000000 1.0
C      1  0.4262200000000  0.4992980000000  0.4612350000000 1.0
C      1  0.4251970000000  0.5003920000000  0.5391530000000 1.0
C      1  0.5750590000000  0.5021380000000  0.4606580000000 1.0
C      1  0.4994460000000  0.5384720000000  0.4261030000000 1.0
C      1  0.4986280000000  0.4584590000000  0.5741960000000 1.0
C      1  0.5004620000000  0.4612260000000  0.4262030000000 1.0
C      1  0.5130560000000  0.5657050000000  0.4459550000000 1.0
C      1  0.4436980000000  0.5169220000000  0.5651010000000 1.0
C      1  0.5618130000000  0.4420420000000  0.5111290000000 1.0
C      1  0.4858580000000  0.5667180000000  0.5539400000000 1.0
C      1  0.5102420000000  0.4331800000000  0.5510160000000 1.0
C      1  0.4884100000000  0.4344710000000  0.4490950000000 1.0
C      1  0.5562790000000  0.5172740000000  0.4340120000000 1.0
C      1  0.4454790000000  0.4827340000000  0.4357660000000 1.0
C      1  0.5545920000000  0.4817490000000  0.5643130000000 1.0
C      1  0.4370410000000  0.4456720000000  0.4897500000000 1.0
C      1  0.5650010000000  0.5574170000000  0.4867040000000 1.0
C      1  0.4347230000000  0.5539660000000  0.5116020000000 1.0
C      1  0.4447810000000  0.5639890000000  0.5115310000000 1.0
C      1  0.5659790000000  0.5173380000000  0.4439780000000 1.0
C      1  0.5116130000000  0.4418870000000  0.5619980000000 1.0
C      1  0.5547230000000  0.5668960000000  0.4870860000000 1.0
C      1  0.5506920000000  0.4333490000000  0.5100350000000 1.0
C      1  0.4475790000000  0.4359600000000  0.4904120000000 1.0
C      1  0.4339830000000  0.5163240000000  0.5550910000000 1.0
C      1  0.4355670000000  0.4832840000000  0.4455940000000 1.0
C      1  0.5643990000000  0.4818750000000  0.5546060000000 1.0
C      1  0.4872990000000  0.4434500000000  0.4381300000000 1.0
C      1  0.4854480000000  0.5573270000000  0.5642100000000 1.0
C      1  0.5135020000000  0.5562410000000  0.4354950000000 1.0
C      1  0.5434150000000  0.4368720000000  0.4740660000000 1.0
C      1  0.4776740000000  0.5435200000000  0.4345910000000 1.0
C      1  0.4345410000000  0.4799560000000  0.5463040000000 1.0
C      1  0.4553110000000  0.4376660000000  0.5260090000000 1.0
C      1  0.5445220000000  0.5645650000000  0.5236000000000 1.0
C      1  0.4552250000000  0.5621210000000  0.4761450000000 1.0
C      1  0.5221220000000  0.5446280000000  0.5653650000000 1.0
C      1  0.4766210000000  0.4558930000000  0.5658530000000 1.0
C      1  0.5228810000000  0.4563410000000  0.4343510000000 1.0
C      1  0.5657160000000  0.4802940000000  0.4543580000000 1.0
C      1  0.4355130000000  0.5199330000000  0.4542000000000 1.0
C      1  0.5650310000000  0.5199550000000  0.5451880000000 1.0
C      1  0.4741350000000  0.4370390000000  0.5441410000000 1.0
C      1  0.4346460000000  0.5422130000000  0.4758780000000 1.0
C      1  0.5458460000000  0.4800550000000  0.4333070000000 1.0
C      1  0.5245650000000  0.4374420000000  0.4559160000000 1.0
C      1  0.5224900000000  0.5643280000000  0.5444920000000 1.0
C      1  0.4771220000000  0.5627040000000  0.4556810000000 1.0
C      1  0.5653760000000  0.5448690000000  0.5232820000000 1.0
C      1  0.5651450000000  0.4554470000000  0.4758790000000 1.0
C      1  0.4346290000000  0.4576200000000  0.5246630000000 1.0
C      1  0.4547630000000  0.4805080000000  0.5663620000000 1.0
C      1  0.4561110000000  0.5194500000000  0.4344800000000 1.0
C      1  0.5444980000000  0.5200460000000  0.5655120000000 1.0
C      1  0.5219870000000  0.5003990000000  0.4664970000000 1.0
C      1  0.4672140000000  0.5204920000000  0.4985530000000 1.0
C      1  0.4993180000000  0.4696490000000  0.5215260000000 1.0
C      1  0.4793060000000  0.5016410000000  0.5329020000000 1.0
C      1  0.5219700000000  0.4994090000000  0.5324470000000 1.0
C      1  0.4793710000000  0.4991630000000  0.4680590000000 1.0
C      1  0.5339720000000  0.5217610000000  0.5010680000000 1.0
C      1  0.4670480000000  0.4807190000000  0.5023870000000 1.0
C      1  0.5341720000000  0.4807660000000  0.4988220000000 1.0
C      1  0.5016630000000  0.4691970000000  0.4790260000000 1.0
C      1  0.5007670000000  0.5316270000000  0.4793870000000 1.0
C      1  0.5015280000000  0.5327470000000  0.5217130000000 1.0
C      1  0.4677460000000  0.5005720000000  0.5218100000000 1.0
C      1  0.5005440000000  0.5205250000000  0.4673430000000 1.0
C      1  0.5224160000000  0.4703120000000  0.4997790000000 1.0
C      1  0.5328150000000  0.5021430000000  0.4782270000000 1.0
C      1  0.5337500000000  0.5000790000000  0.5210920000000 1.0
C      1  0.4678120000000  0.5002560000000  0.4790990000000 1.0
C      1  0.5014360000000  0.5216370000000  0.5334530000000 1.0
C      1  0.5018200000000  0.4798190000000  0.4669610000000 1.0
C      1  0.4995020000000  0.4802860000000  0.5333410000000 1.0
C      1  0.4785140000000  0.4703930000000  0.5010090000000 1.0
C      1  0.4787500000000  0.5310180000000  0.5002140000000 1.0
C      1  0.5222790000000  0.5328230000000  0.5016680000000 1.0
C      1  0.5585450000000  0.5048680000000  0.5246190000000 1.0
C      1  0.5218820000000  0.5586090000000  0.5101680000000 1.0
C      1  0.5067550000000  0.5249990000000  0.5582140000000 1.0
C      1  0.4415520000000  0.5079080000000  0.4777860000000 1.0
C      1  0.5575940000000  0.4962110000000  0.4739110000000 1.0
C      1  0.4410890000000  0.4923530000000  0.5228170000000 1.0
C      1  0.4782400000000  0.5563710000000  0.4901920000000 1.0
C      1  0.5217550000000  0.4458920000000  0.4897430000000 1.0
C      1  0.4779470000000  0.4460170000000  0.5108270000000 1.0
C      1  0.4939170000000  0.5241000000000  0.4425990000000 1.0
C      1  0.5071340000000  0.4753510000000  0.4424770000000 1.0
C      1  0.4934400000000  0.4753740000000  0.5591340000000 1.0
C      1  0.5254630000000  0.5042250000000  0.5570750000000 1.0
C      1  0.5099060000000  0.5584190000000  0.5214500000000 1.0
C      1  0.5588350000000  0.5253780000000  0.5070910000000 1.0
C      1  0.4756860000000  0.5042250000000  0.4432870000000 1.0
C      1  0.4745990000000  0.4957780000000  0.5577900000000 1.0
C      1  0.5256090000000  0.4947990000000  0.4406840000000 1.0
C      1  0.4905830000000  0.5569210000000  0.4790760000000 1.0
C      1  0.4890610000000  0.4453290000000  0.5214740000000 1.0
C      1  0.5107840000000  0.4453860000000  0.4788580000000 1.0
C      1  0.4414780000000  0.5200310000000  0.4893020000000 1.0
C      1  0.4414100000000  0.4801480000000  0.5114200000000 1.0
C      1  0.5590410000000  0.4754330000000  0.4919930000000 1.0
C      1  0.4568400000000  0.4796120000000  0.5133100000000 1.0
C      1  0.5126010000000  0.4600180000000  0.4774520000000 1.0
C      1  0.4794930000000  0.5085940000000  0.4564540000000 1.0
C      1  0.5452410000000  0.4808110000000  0.4888810000000 1.0
C      1  0.4569880000000  0.5212660000000  0.4877310000000 1.0
C      1  0.5451880000000  0.5216050000000  0.5111160000000 1.0
C      1  0.4885230000000  0.4602320000000  0.5229990000000 1.0
C      1  0.5118990000000  0.5431080000000  0.5228460000000 1.0
C      1  0.4902340000000  0.5416380000000  0.4787910000000 1.0
C      1  0.5220370000000  0.5089000000000  0.5440170000000 1.0
C      1  0.4794600000000  0.4921470000000  0.5447080000000 1.0
C      1  0.5226570000000  0.4909530000000  0.4549710000000 1.0
C      1  0.5119220000000  0.4793630000000  0.4556490000000 1.0
C      1  0.4772580000000  0.4606060000000  0.5121170000000 1.0
C      1  0.4569720000000  0.5099930000000  0.4771370000000 1.0
C      1  0.4900790000000  0.4804330000000  0.5451220000000 1.0
C      1  0.4907560000000  0.5198790000000  0.4561860000000 1.0
C      1  0.5112040000000  0.5210950000000  0.5446550000000 1.0
C      1  0.5236490000000  0.4604210000000  0.4888750000000 1.0
C      1  0.5231870000000  0.5431590000000  0.5120560000000 1.0
C      1  0.4786210000000  0.5412010000000  0.4893540000000 1.0
C      1  0.5451510000000  0.5095340000000  0.5216120000000 1.0
C      1  0.5444760000000  0.4925130000000  0.4782580000000 1.0
C      1  0.4566760000000  0.4909650000000  0.5236330000000 1.0
C      1  0.5226060000000  0.5008380000000  0.5108490000000 1.0
C      1  0.5116690000000  0.5216610000000  0.5006910000000 1.0
C      1  0.5009850000000  0.5113080000000  0.5221950000000 1.0
C      1  0.4789280000000  0.5005110000000  0.4894960000000 1.0
C      1  0.5223210000000  0.5011130000000  0.4889890000000 1.0
C      1  0.4788500000000  0.5007350000000  0.5113580000000 1.0
C      1  0.4900890000000  0.5209480000000  0.5002940000000 1.0
C      1  0.5114800000000  0.4806850000000  0.4999700000000 1.0
C      1  0.4898940000000  0.4804820000000  0.5004760000000 1.0
C      1  0.5006420000000  0.5106780000000  0.4785710000000 1.0
C      1  0.5010640000000  0.4902230000000  0.4782000000000 1.0
C      1  0.5003760000000  0.4907180000000  0.5221390000000 1.0
C      1  0.5116090000000  0.5007180000000  0.5217520000000 1.0
C      1  0.5010110000000  0.5215790000000  0.5112190000000 1.0
C      1  0.5226260000000  0.5113890000000  0.5002830000000 1.0
C      1  0.4898810000000  0.5002900000000  0.4787680000000 1.0
C      1  0.4897850000000  0.5010620000000  0.5220660000000 1.0
C      1  0.5116600000000  0.5006370000000  0.4779650000000 1.0
C      1  0.5007440000000  0.5209900000000  0.4897910000000 1.0
C      1  0.5003930000000  0.4806120000000  0.5109900000000 1.0
C      1  0.5009240000000  0.4803060000000  0.4894490000000 1.0
C      1  0.4788600000000  0.5107340000000  0.5000990000000 1.0
C      1  0.4787030000000  0.4905580000000  0.5007390000000 1.0
C      1  0.5227430000000  0.4908070000000  0.4997450000000 1.0
C      1  0.5132280000000  0.5485340000000  0.4708100000000 1.0
C      1  0.4686810000000  0.5163900000000  0.5471560000000 1.0
C      1  0.5492860000000  0.4679860000000  0.5120520000000 1.0
C      1  0.4878070000000  0.5503930000000  0.5290220000000 1.0
C      1  0.5109990000000  0.4506840000000  0.5283070000000 1.0
C      1  0.4886350000000  0.4512620000000  0.4719390000000 1.0
C      1  0.5322800000000  0.5152090000000  0.4500870000000 1.0
C      1  0.4691740000000  0.4838270000000  0.4538680000000 1.0
C      1  0.5313210000000  0.4832070000000  0.5469850000000 1.0
C      1  0.4505110000000  0.4698370000000  0.4902870000000 1.0
C      1  0.5496890000000  0.5328690000000  0.4868890000000 1.0
C      1  0.4498920000000  0.5305770000000  0.5105430000000 1.0
C      1  0.4698270000000  0.5471100000000  0.5122310000000 1.0
C      1  0.5474310000000  0.5173160000000  0.4687040000000 1.0
C      1  0.5128680000000  0.4678260000000  0.5488390000000 1.0
C      1  0.5303750000000  0.5508990000000  0.4886120000000 1.0
C      1  0.5291290000000  0.4528100000000  0.5118240000000 1.0
C      1  0.4707520000000  0.4536040000000  0.4888990000000 1.0
C      1  0.4505220000000  0.5140700000000  0.5301250000000 1.0
C      1  0.4510230000000  0.4861250000000  0.4706340000000 1.0
C      1  0.5490580000000  0.4840310000000  0.5309810000000 1.0
C      1  0.4873920000000  0.4671470000000  0.4527110000000 1.0
C      1  0.4867760000000  0.5332770000000  0.5484930000000 1.0
C      1  0.5140990000000  0.5321970000000  0.4516800000000 1.0
C      1  0.5164640000000  0.5831790000000  0.4936390000000 1.0
C      1  0.5042340000000  0.4954900000000  0.5827780000000 1.0
C      1  0.5832730000000  0.4913340000000  0.5180950000000 1.0
C      1  0.4832390000000  0.5801100000000  0.5013660000000 1.0
C      1  0.5094750000000  0.4223640000000  0.5002580000000 1.0
C      1  0.4887430000000  0.4222350000000  0.4999490000000 1.0
C      1  0.5079320000000  0.5160540000000  0.4192160000000 1.0
C      1  0.4943100000000  0.4938880000000  0.4188620000000 1.0
C      1  0.5096510000000  0.4765270000000  0.5843020000000 1.0
C      1  0.4185660000000  0.5018980000000  0.4929980000000 1.0
C      1  0.5867810000000  0.5104700000000  0.5011090000000 1.0
C      1  0.4181990000000  0.4975700000000  0.5072630000000 1.0
C      1  0.4925800000000  0.5818850000000  0.4933720000000 1.0
C      1  0.5838090000000  0.5197160000000  0.4935140000000 1.0
C      1  0.5169100000000  0.4881620000000  0.5802670000000 1.0
C      1  0.5052490000000  0.5814950000000  0.4867040000000 1.0
C      1  0.4993510000000  0.4218570000000  0.5103530000000 1.0
C      1  0.4989270000000  0.4219460000000  0.4898530000000 1.0
C      1  0.4197480000000  0.5117440000000  0.5037320000000 1.0
C      1  0.4198420000000  0.4876930000000  0.4966300000000 1.0
C      1  0.5866650000000  0.5002170000000  0.5102140000000 1.0
C      1  0.4858580000000  0.4840150000000  0.4224460000000 1.0
C      1  0.4976140000000  0.4837920000000  0.5876130000000 1.0
C      1  0.5014670000000  0.5051430000000  0.4176490000000 1.0
C      1  0.4434250000000  0.5326400000000  0.4524190000000 1.0
C      1  0.4521450000000  0.4459560000000  0.5378280000000 1.0
C      1  0.5360710000000  0.4559040000000  0.4414760000000 1.0
C      1  0.5567670000000  0.5332030000000  0.5467900000000 1.0
C      1  0.4424600000000  0.4673920000000  0.5482990000000 1.0
C      1  0.5576920000000  0.4673600000000  0.4523080000000 1.0
C      1  0.5470010000000  0.4455100000000  0.4624170000000 1.0
C      1  0.4535210000000  0.5541230000000  0.4635530000000 1.0
C      1  0.5462470000000  0.5558340000000  0.5360210000000 1.0
C      1  0.4635970000000  0.4560370000000  0.5586130000000 1.0
C      1  0.5349700000000  0.5450660000000  0.5573340000000 1.0
C      1  0.4647850000000  0.5440720000000  0.4422980000000 1.0
C      1  0.4540930000000  0.5326020000000  0.4420970000000 1.0
C      1  0.5364340000000  0.4456660000000  0.4520940000000 1.0
C      1  0.4419820000000  0.4564180000000  0.5375620000000 1.0
C      1  0.5460320000000  0.5332410000000  0.5573770000000 1.0
C      1  0.5472450000000  0.4673200000000  0.4415230000000 1.0
C      1  0.4529920000000  0.4675040000000  0.5587090000000 1.0
C      1  0.4627540000000  0.4458200000000  0.5480040000000 1.0
C      1  0.4645820000000  0.5542790000000  0.4531310000000 1.0
C      1  0.5351240000000  0.5557260000000  0.5466690000000 1.0
C      1  0.5576380000000  0.4556970000000  0.4629430000000 1.0
C      1  0.5570030000000  0.5451480000000  0.5359380000000 1.0
C      1  0.4429640000000  0.5436350000000  0.4633080000000 1.0
C      1  0.5241680000000  0.4490380000000  0.5355920000000 1.0
C      1  0.5382700000000  0.5290890000000  0.4505000000000 1.0
C      1  0.4502080000000  0.5380670000000  0.5241950000000 1.0
C      1  0.4750040000000  0.4500760000000  0.4651010000000 1.0
C      1  0.5259930000000  0.5507160000000  0.4630950000000 1.0
C      1  0.4740430000000  0.5504240000000  0.5362140000000 1.0
C      1  0.4612680000000  0.5288550000000  0.5476630000000 1.0
C      1  0.5376860000000  0.4697890000000  0.5477220000000 1.0
C      1  0.4621430000000  0.4711300000000  0.4531870000000 1.0
C      1  0.5491160000000  0.5407210000000  0.4739960000000 1.0
C      1  0.4512260000000  0.4620640000000  0.4767450000000 1.0
C      1  0.5482740000000  0.4598460000000  0.5247570000000 1.0
C      1  0.5360650000000  0.4494440000000  0.5242900000000 1.0
C      1  0.4500160000000  0.5275620000000  0.5366260000000 1.0
C      1  0.5266340000000  0.5400220000000  0.4511060000000 1.0
C      1  0.4631300000000  0.4509770000000  0.4766390000000 1.0
C      1  0.4618520000000  0.5493330000000  0.5244490000000 1.0
C      1  0.5375400000000  0.5513110000000  0.4749170000000 1.0
C      1  0.5489940000000  0.5299090000000  0.4616670000000 1.0
C      1  0.5489070000000  0.4701870000000  0.5369820000000 1.0
C      1  0.4508500000000  0.4723780000000  0.4642650000000 1.0
C      1  0.4734060000000  0.5400840000000  0.5477140000000 1.0
C      1  0.4741490000000  0.4601750000000  0.4532830000000 1.0
C      1  0.5252410000000  0.4593070000000  0.5475290000000 1.0
C      1  0.4400790000000  0.5228130000000  0.5039110000000 1.0
C      1  0.5025020000000  0.4412180000000  0.5228700000000 1.0
C      1  0.5271790000000  0.5088010000000  0.4388900000000 1.0
C      1  0.5607970000000  0.5275780000000  0.4932960000000 1.0
C      1  0.4404260000000  0.4773430000000  0.4968310000000 1.0
C      1  0.5608410000000  0.4728710000000  0.5059180000000 1.0
C      1  0.4969480000000  0.4418710000000  0.4777620000000 1.0
C      1  0.5052250000000  0.5588160000000  0.4769790000000 1.0
C      1  0.4949530000000  0.5611230000000  0.5224750000000 1.0
C      1  0.4729100000000  0.5095880000000  0.5588690000000 1.0
C      1  0.5271540000000  0.4904520000000  0.5581570000000 1.0
C      1  0.4734840000000  0.4905760000000  0.4425820000000 1.0
C      1  0.5073820000000  0.5270480000000  0.4405420000000 1.0
C      1  0.5227590000000  0.4430270000000  0.5034740000000 1.0
C      1  0.4393310000000  0.5069020000000  0.5247020000000 1.0
C      1  0.4927150000000  0.5272540000000  0.5597060000000 1.0
C      1  0.4933830000000  0.4728130000000  0.4417270000000 1.0
C      1  0.5069470000000  0.4722410000000  0.5604610000000 1.0
C      1  0.4765760000000  0.4434410000000  0.4970510000000 1.0
C      1  0.4757150000000  0.5577630000000  0.5044840000000 1.0
C      1  0.5242350000000  0.5611110000000  0.4958100000000 1.0
C      1  0.5588610000000  0.5100000000000  0.4725900000000 1.0
C      1  0.5604550000000  0.4909720000000  0.5266100000000 1.0
C      1  0.4397550000000  0.4932710000000  0.4759540000000 1.0
C      1  0.4871600000000  0.4657890000000  0.5683970000000 1.0
C      1  0.5674900000000  0.4899470000000  0.4652690000000 1.0
C      1  0.4662000000000  0.5645570000000  0.4851670000000 1.0
C      1  0.5129420000000  0.4666380000000  0.4322410000000 1.0
C      1  0.4875210000000  0.5331240000000  0.4329300000000 1.0
C      1  0.5123150000000  0.5343280000000  0.5677500000000 1.0
C      1  0.4322880000000  0.4883650000000  0.5349450000000 1.0
C      1  0.5674690000000  0.5105080000000  0.5344560000000 1.0
C      1  0.4329560000000  0.5115660000000  0.4655010000000 1.0
C      1  0.5336960000000  0.5671930000000  0.5145960000000 1.0
C      1  0.4684730000000  0.4346890000000  0.5197090000000 1.0
C      1  0.5302580000000  0.4344590000000  0.4803900000000 1.0
C      1  0.5677850000000  0.4654080000000  0.4860480000000 1.0
C      1  0.4656490000000  0.4900000000000  0.5679540000000 1.0
C      1  0.4858390000000  0.5651890000000  0.4668870000000 1.0
C      1  0.4323480000000  0.4685290000000  0.5156530000000 1.0
C      1  0.4322820000000  0.5313240000000  0.4848900000000 1.0
C      1  0.5678910000000  0.5348130000000  0.5132650000000 1.0
C      1  0.5349580000000  0.4893760000000  0.4310000000000 1.0
C      1  0.5338900000000  0.5101360000000  0.5672710000000 1.0
C      1  0.4671300000000  0.5100480000000  0.4328030000000 1.0
C      1  0.5137040000000  0.5669220000000  0.5334640000000 1.0
C      1  0.5186760000000  0.4346440000000  0.4693460000000 1.0
C      1  0.4800760000000  0.4344540000000  0.5308010000000 1.0
C      1  0.4843140000000  0.4430990000000  0.5673720000000 1.0
C      1  0.5697710000000  0.4890550000000  0.4429310000000 1.0
C      1  0.4438410000000  0.5661540000000  0.4844820000000 1.0
C      1  0.5141260000000  0.4441940000000  0.4326740000000 1.0
C      1  0.4860800000000  0.5555130000000  0.4316440000000 1.0
C      1  0.5136660000000  0.5567900000000  0.5684240000000 1.0
C      1  0.4305520000000  0.4888190000000  0.5574200000000 1.0
C      1  0.5684220000000  0.5107040000000  0.5565690000000 1.0
C      1  0.4320320000000  0.5107960000000  0.4430150000000 1.0
C      1  0.5558010000000  0.5690510000000  0.5150820000000 1.0
C      1  0.4452350000000  0.4336690000000  0.5166160000000 1.0
C      1  0.5530620000000  0.4316560000000  0.4832230000000 1.0
C      1  0.5668290000000  0.4428250000000  0.4839520000000 1.0
C      1  0.4431700000000  0.4892670000000  0.5698770000000 1.0
C      1  0.4857010000000  0.5675530000000  0.4447370000000 1.0
C      1  0.4320870000000  0.4460780000000  0.5158910000000 1.0
C      1  0.4311380000000  0.5535820000000  0.4846030000000 1.0
C      1  0.5684750000000  0.5570250000000  0.5149210000000 1.0
C      1  0.5574520000000  0.4888930000000  0.4300000000000 1.0
C      1  0.5560210000000  0.5108600000000  0.5689490000000 1.0
C      1  0.4448290000000  0.5103770000000  0.4309150000000 1.0
C      1  0.5138840000000  0.5690890000000  0.5555350000000 1.0
C      1  0.5150550000000  0.4327220000000  0.4462320000000 1.0
C      1  0.4832960000000  0.4318770000000  0.5538110000000 1.0
C      1  0.5224560000000  0.5400950000000  0.5324780000000 1.0
C      1  0.5316200000000  0.5196300000000  0.5407590000000 1.0
C      1  0.5418220000000  0.5302830000000  0.5225440000000 1.0
C      1  0.4801450000000  0.5390660000000  0.4684430000000 1.0
C      1  0.5236560000000  0.4618240000000  0.4682410000000 1.0
C      1  0.4786640000000  0.4617730000000  0.5334650000000 1.0
C      1  0.4702610000000  0.5198820000000  0.4586540000000 1.0
C      1  0.5330110000000  0.4812420000000  0.4583780000000 1.0
C      1  0.4694370000000  0.4815260000000  0.5429150000000 1.0
C      1  0.4597200000000  0.5305140000000  0.4769390000000 1.0
C      1  0.5428280000000  0.4716350000000  0.4776520000000 1.0
C      1  0.4589890000000  0.4709560000000  0.5247070000000 1.0
C      1  0.5325980000000  0.5401620000000  0.5227170000000 1.0
C      1  0.5415920000000  0.5198580000000  0.5316600000000 1.0
C      1  0.5224720000000  0.5299170000000  0.5413570000000 1.0
C      1  0.4698970000000  0.5391720000000  0.4777900000000 1.0
C      1  0.4686320000000  0.4617920000000  0.5238780000000 1.0
C      1  0.5333880000000  0.4620790000000  0.4782110000000 1.0
C      1  0.4600250000000  0.5202880000000  0.4673690000000 1.0
C      1  0.4592590000000  0.4813120000000  0.5340710000000 1.0
C      1  0.5420170000000  0.4817940000000  0.4683710000000 1.0
C      1  0.4800750000000  0.5295840000000  0.4588460000000 1.0
C      1  0.4787520000000  0.4712700000000  0.5430890000000 1.0
C      1  0.5236510000000  0.4710890000000  0.4585290000000 1.0
C      1  0.5731270000000  0.4714770000000  0.5332860000000 1.0
C      1  0.5329440000000  0.5747740000000  0.4772030000000 1.0
C      1  0.4746280000000  0.5370480000000  0.5724540000000 1.0
C      1  0.4272680000000  0.4746150000000  0.4672810000000 1.0
C      1  0.5733960000000  0.5276020000000  0.4651310000000 1.0
C      1  0.4260590000000  0.5249170000000  0.5334030000000 1.0
C      1  0.4668750000000  0.5732980000000  0.5215750000000 1.0
C      1  0.5284900000000  0.4261980000000  0.5190630000000 1.0
C      1  0.4698320000000  0.4274260000000  0.4811570000000 1.0
C      1  0.5248190000000  0.5359570000000  0.4262300000000 1.0
C      1  0.4755900000000  0.4626870000000  0.4285480000000 1.0
C      1  0.5242180000000  0.4612090000000  0.5722860000000 1.0
C      1  0.5339050000000  0.4712540000000  0.5719880000000 1.0
C      1  0.4763160000000  0.5738610000000  0.5317920000000 1.0
C      1  0.5740240000000  0.5369300000000  0.4754060000000 1.0
C      1  0.4656720000000  0.4721670000000  0.4285670000000 1.0
C      1  0.4646130000000  0.5274820000000  0.5724270000000 1.0
C      1  0.5354990000000  0.5272310000000  0.4258950000000 1.0
C      1  0.5226270000000  0.5740120000000  0.4679570000000 1.0
C      1  0.5188620000000  0.4256080000000  0.5289310000000 1.0
C      1  0.4795570000000  0.4267790000000  0.4713670000000 1.0
C      1  0.4261630000000  0.5327940000000  0.5221790000000 1.0
C      1  0.4273300000000  0.4667120000000  0.4784990000000 1.0
C      1  0.5725220000000  0.4616910000000  0.5233780000000 1.0
C      1  0.4308580000000  0.5665930000000  0.4791230000000 1.0
C      1  0.5663040000000  0.4299930000000  0.4782310000000 1.0
C      1  0.5687390000000  0.5699680000000  0.5205180000000 1.0
C      1  0.5692480000000  0.5154260000000  0.5698160000000 1.0
C      1  0.4316760000000  0.4330320000000  0.5209440000000 1.0
C      1  0.4804070000000  0.5684350000000  0.4317340000000 1.0
C      1  0.5195220000000  0.4312090000000  0.4327150000000 1.0
C      1  0.4784190000000  0.4304310000000  0.5671800000000 1.0
C      1  0.4317880000000  0.5156610000000  0.4298170000000 1.0
C      1  0.5705410000000  0.4836510000000  0.4299760000000 1.0
C      1  0.4301760000000  0.4837500000000  0.5705050000000 1.0
C      1  0.5193300000000  0.5697620000000  0.5684400000000 1.0
C      1  0.4735090000000  0.5220520000000  0.5227850000000 1.0
C      1  0.5216260000000  0.5236410000000  0.4742970000000 1.0
C      1  0.5262120000000  0.4789790000000  0.5221130000000 1.0
C      1  0.4739690000000  0.4788800000000  0.4784090000000 1.0
END
