TITL C-3151192-8964-101 -299.321473146918 1000000 -3639.87169622176 0 0 520 (C1) n - 1
REM
REM in /scratch/bkarasulu/Only-C240/Try4-Only-SYMOP24
REM
REM
REM
REM
REM
REM ./C.cell (018bbde761a0794ceee8127bb1f748ef)
REM
REM compiler GCC version 9.2.1 20190827 (Red Hat 9.2.1-1)
REM options -cpp -mtune=generic -march=x86-64 -g -O0 -fpre-include=/usr/include/finclude/math-vector-fortran.h
REM seed 1194670980 -59759958 359414815 -1618836968 -139579157 -2005924643 -1788031922 -10143876 -221172191 1563834923 -24124067 899292578 -928913071 -1124169080 1323399955 -538400313 1197766456 1109646813 1095892821 241177220 -8649541 -2054514787 -1104499669 574744099 -83203219 814782836 1941905383 30735331 -1222807812 1371834515 -348251143 -1694705534 -84593583
REM
CELL 1.54180  100.00000  100.00000  100.00000   90.00000   90.00000   90.00000
LATT -1
SFAC C  
C      1  0.4848150000000  0.4659150000000  0.5711560000000 1.0
C      1  0.4609180000000  0.5706580000000  0.4872510000000 1.0
C      1  0.5692750000000  0.4798050000000  0.4610080000000 1.0
C      1  0.5159580000000  0.5320800000000  0.5717930000000 1.0
C      1  0.4809440000000  0.5442580000000  0.4255240000000 1.0
C      1  0.5180260000000  0.4557120000000  0.4227250000000 1.0
C      1  0.5459830000000  0.4237450000000  0.4822010000000 1.0
C      1  0.4628660000000  0.4291980000000  0.5174880000000 1.0
C      1  0.5295270000000  0.5731110000000  0.5183670000000 1.0
C      1  0.4248950000000  0.5202290000000  0.4566470000000 1.0
C      1  0.5713680000000  0.5152540000000  0.5348730000000 1.0
C      1  0.4259560000000  0.4898050000000  0.5296620000000 1.0
C      1  0.4553520000000  0.4790080000000  0.5759450000000 1.0
C      1  0.5736550000000  0.4677680000000  0.4860070000000 1.0
C      1  0.4825640000000  0.5738960000000  0.4731310000000 1.0
C      1  0.5373880000000  0.5148730000000  0.5707260000000 1.0
C      1  0.5314210000000  0.4829200000000  0.4271270000000 1.0
C      1  0.4676550000000  0.5156070000000  0.4289700000000 1.0
C      1  0.4294450000000  0.5327680000000  0.4851290000000 1.0
C      1  0.4284460000000  0.4648780000000  0.5157780000000 1.0
C      1  0.5709120000000  0.5346620000000  0.5136740000000 1.0
C      1  0.5169760000000  0.4290650000000  0.4675000000000 1.0
C      1  0.5149950000000  0.5702740000000  0.5400460000000 1.0
C      1  0.4854930000000  0.4292090000000  0.5347430000000 1.0
C      1  0.4967750000000  0.5869490000000  0.5157710000000 1.0
C      1  0.5879740000000  0.5133330000000  0.4927290000000 1.0
C      1  0.5119950000000  0.4978250000000  0.5870760000000 1.0
C      1  0.5058220000000  0.4139690000000  0.5131030000000 1.0
C      1  0.4976460000000  0.4143750000000  0.4879600000000 1.0
C      1  0.5025780000000  0.5847810000000  0.4889780000000 1.0
C      1  0.4124350000000  0.4890050000000  0.4964170000000 1.0
C      1  0.5880870000000  0.4883670000000  0.5016200000000 1.0
C      1  0.4109870000000  0.5154160000000  0.5033450000000 1.0
C      1  0.4852980000000  0.5003140000000  0.5872590000000 1.0
C      1  0.5121120000000  0.5035330000000  0.4120250000000 1.0
C      1  0.4866670000000  0.4959900000000  0.4140140000000 1.0
C      1  0.5870390000000  0.5000290000000  0.5105630000000 1.0
C      1  0.5128150000000  0.5844170000000  0.4990120000000 1.0
C      1  0.4944110000000  0.5116560000000  0.5880000000000 1.0
C      1  0.4099830000000  0.5049790000000  0.5130860000000 1.0
C      1  0.4133110000000  0.4997020000000  0.4865930000000 1.0
C      1  0.5880340000000  0.5019670000000  0.4836700000000 1.0
C      1  0.4883930000000  0.4146460000000  0.4992610000000 1.0
C      1  0.4864620000000  0.5872550000000  0.5056440000000 1.0
C      1  0.5150420000000  0.4142550000000  0.5018880000000 1.0
C      1  0.5027610000000  0.4864250000000  0.5873010000000 1.0
C      1  0.5012160000000  0.5130610000000  0.4126150000000 1.0
C      1  0.4975630000000  0.4863270000000  0.4134730000000 1.0
C      1  0.4610900000000  0.5285150000000  0.4495270000000 1.0
C      1  0.5278710000000  0.4505080000000  0.4591830000000 1.0
C      1  0.4492530000000  0.4610380000000  0.5296270000000 1.0
C      1  0.5364870000000  0.4704740000000  0.4475880000000 1.0
C      1  0.4599580000000  0.4704500000000  0.5516870000000 1.0
C      1  0.5406480000000  0.5278410000000  0.5501880000000 1.0
C      1  0.4826830000000  0.5551330000000  0.4615470000000 1.0
C      1  0.5297850000000  0.5496550000000  0.5404680000000 1.0
C      1  0.4712190000000  0.4498010000000  0.5400010000000 1.0
C      1  0.5508150000000  0.5387580000000  0.5287330000000 1.0
C      1  0.4499570000000  0.5390000000000  0.4711690000000 1.0
C      1  0.5535500000000  0.4575200000000  0.4806170000000 1.0
C      1  0.5257650000000  0.4596030000000  0.4472820000000 1.0
C      1  0.4495740000000  0.5288010000000  0.4596420000000 1.0
C      1  0.4600050000000  0.4500900000000  0.5296110000000 1.0
C      1  0.4711390000000  0.5401840000000  0.4494710000000 1.0
C      1  0.4713800000000  0.4603570000000  0.5510000000000 1.0
C      1  0.5295750000000  0.5382300000000  0.5508000000000 1.0
C      1  0.5470070000000  0.4676160000000  0.4581290000000 1.0
C      1  0.5511660000000  0.5279150000000  0.5393100000000 1.0
C      1  0.4449760000000  0.4826790000000  0.5403620000000 1.0
C      1  0.5389090000000  0.5541690000000  0.5178110000000 1.0
C      1  0.5441240000000  0.4484100000000  0.4757660000000 1.0
C      1  0.4602900000000  0.5504230000000  0.4713750000000 1.0
C      1  0.4842610000000  0.5724780000000  0.4463270000000 1.0
C      1  0.5731950000000  0.4449920000000  0.4814080000000 1.0
C      1  0.4379040000000  0.4779550000000  0.5638760000000 1.0
C      1  0.5219130000000  0.4307810000000  0.4459210000000 1.0
C      1  0.4815480000000  0.4347660000000  0.5558490000000 1.0
C      1  0.5210850000000  0.5634930000000  0.5592430000000 1.0
C      1  0.4329430000000  0.5535930000000  0.4811610000000 1.0
C      1  0.5644340000000  0.5557620000000  0.5167300000000 1.0
C      1  0.4326440000000  0.4446100000000  0.5208700000000 1.0
C      1  0.5581310000000  0.5189360000000  0.5656610000000 1.0
C      1  0.4466220000000  0.5211310000000  0.4305910000000 1.0
C      1  0.5525320000000  0.4761620000000  0.4306180000000 1.0
C      1  0.5623120000000  0.4752710000000  0.4404430000000 1.0
C      1  0.4418130000000  0.5640440000000  0.4812380000000 1.0
C      1  0.4815920000000  0.4443390000000  0.5659030000000 1.0
C      1  0.4362060000000  0.5223360000000  0.4391060000000 1.0
C      1  0.4270240000000  0.4812160000000  0.5553280000000 1.0
C      1  0.5676760000000  0.5191390000000  0.5558730000000 1.0
C      1  0.5641660000000  0.4348150000000  0.4805780000000 1.0
C      1  0.5567790000000  0.5681310000000  0.5146850000000 1.0
C      1  0.4421450000000  0.4347620000000  0.5218260000000 1.0
C      1  0.5211240000000  0.5530680000000  0.5682660000000 1.0
C      1  0.5212450000000  0.4386090000000  0.4348470000000 1.0
C      1  0.4803230000000  0.5618580000000  0.4374850000000 1.0
C      1  0.5035770000000  0.4776140000000  0.5582670000000 1.0
C      1  0.4742560000000  0.5591980000000  0.5055820000000 1.0
C      1  0.5589620000000  0.5004220000000  0.4737370000000 1.0
C      1  0.4971870000000  0.5212930000000  0.5589170000000 1.0
C      1  0.5020780000000  0.5210260000000  0.4415080000000 1.0
C      1  0.4962330000000  0.4778310000000  0.4416380000000 1.0
C      1  0.5223170000000  0.4420000000000  0.5025310000000 1.0
C      1  0.4774840000000  0.4417730000000  0.4984110000000 1.0
C      1  0.5268970000000  0.5540680000000  0.4958790000000 1.0
C      1  0.4424100000000  0.4978830000000  0.4786390000000 1.0
C      1  0.5584840000000  0.4974330000000  0.5215080000000 1.0
C      1  0.4433930000000  0.5024000000000  0.5238920000000 1.0
C      1  0.4786040000000  0.5018340000000  0.5584690000000 1.0
C      1  0.5587220000000  0.4786980000000  0.5029420000000 1.0
C      1  0.5043790000000  0.5549060000000  0.4735460000000 1.0
C      1  0.5231210000000  0.4973570000000  0.5581220000000 1.0
C      1  0.5213230000000  0.5028820000000  0.4403850000000 1.0
C      1  0.4767330000000  0.4960480000000  0.4422390000000 1.0
C      1  0.4426720000000  0.5222970000000  0.5037840000000 1.0
C      1  0.4411970000000  0.4760010000000  0.4962700000000 1.0
C      1  0.5590570000000  0.5225200000000  0.4955220000000 1.0
C      1  0.4967320000000  0.4418190000000  0.4781010000000 1.0
C      1  0.4958720000000  0.5591190000000  0.5269000000000 1.0
C      1  0.5034290000000  0.4418440000000  0.5232180000000 1.0
C      1  0.4297710000000  0.5111970000000  0.4457040000000 1.0
C      1  0.5095520000000  0.4447430000000  0.4287110000000 1.0
C      1  0.4491410000000  0.4305490000000  0.5102190000000 1.0
C      1  0.5669610000000  0.4868100000000  0.4474840000000 1.0
C      1  0.4235750000000  0.4943470000000  0.5561260000000 1.0
C      1  0.5708440000000  0.5071820000000  0.5485040000000 1.0
C      1  0.4904600000000  0.5549670000000  0.4300760000000 1.0
C      1  0.5093970000000  0.5459790000000  0.5720780000000 1.0
C      1  0.4930310000000  0.4519500000000  0.5699730000000 1.0
C      1  0.5591570000000  0.5735010000000  0.5022390000000 1.0
C      1  0.4473600000000  0.5684810000000  0.4937490000000 1.0
C      1  0.5573280000000  0.4287150000000  0.4915730000000 1.0
C      1  0.5101360000000  0.4285570000000  0.4535480000000 1.0
C      1  0.4534650000000  0.5087060000000  0.4284300000000 1.0
C      1  0.4293350000000  0.4512380000000  0.5084640000000 1.0
C      1  0.4974920000000  0.5761340000000  0.4441760000000 1.0
C      1  0.4930810000000  0.4306850000000  0.5485880000000 1.0
C      1  0.5087040000000  0.5680300000000  0.5534880000000 1.0
C      1  0.5459440000000  0.4882350000000  0.4269970000000 1.0
C      1  0.5508790000000  0.5071260000000  0.5693090000000 1.0
C      1  0.4444250000000  0.4884690000000  0.5713170000000 1.0
C      1  0.5694790000000  0.5480490000000  0.5059560000000 1.0
C      1  0.5750980000000  0.4529610000000  0.4934240000000 1.0
C      1  0.4290380000000  0.5465240000000  0.4930290000000 1.0
C      1  0.4513010000000  0.4683490000000  0.5164140000000 1.0
C      1  0.4683180000000  0.5158050000000  0.4522900000000 1.0
C      1  0.5160510000000  0.4518530000000  0.4683870000000 1.0
C      1  0.5479620000000  0.5319720000000  0.5148180000000 1.0
C      1  0.4528830000000  0.5319960000000  0.4844040000000 1.0
C      1  0.5496180000000  0.4689090000000  0.4868040000000 1.0
C      1  0.5308440000000  0.4838060000000  0.4504100000000 1.0
C      1  0.4677720000000  0.4842370000000  0.5495360000000 1.0
C      1  0.5324090000000  0.5155240000000  0.5478540000000 1.0
C      1  0.4902540000000  0.5514310000000  0.4737400000000 1.0
C      1  0.5168480000000  0.5481440000000  0.5321860000000 1.0
C      1  0.4843450000000  0.4522710000000  0.5324100000000 1.0
C      1  0.4678160000000  0.4519080000000  0.5167030000000 1.0
C      1  0.5135040000000  0.4678680000000  0.4499530000000 1.0
C      1  0.4513070000000  0.5160450000000  0.4685510000000 1.0
C      1  0.5266960000000  0.5506920000000  0.5099640000000 1.0
C      1  0.5319710000000  0.4503040000000  0.4852680000000 1.0
C      1  0.4684090000000  0.5484330000000  0.4843940000000 1.0
C      1  0.4846360000000  0.5320070000000  0.4514210000000 1.0
C      1  0.4839740000000  0.4682440000000  0.5481200000000 1.0
C      1  0.5161060000000  0.5316240000000  0.5480830000000 1.0
C      1  0.5470820000000  0.4803540000000  0.4673980000000 1.0
C      1  0.5484460000000  0.5158120000000  0.5309080000000 1.0
C      1  0.4496490000000  0.4897470000000  0.5289980000000 1.0
C      1  0.5330460000000  0.5700660000000  0.4575460000000 1.0
C      1  0.5708250000000  0.4581810000000  0.5311820000000 1.0
C      1  0.4554220000000  0.5318970000000  0.5655690000000 1.0
C      1  0.4664480000000  0.4356900000000  0.4561230000000 1.0
C      1  0.5324860000000  0.4292840000000  0.5468500000000 1.0
C      1  0.4550380000000  0.5730440000000  0.5442950000000 1.0
C      1  0.4277170000000  0.5395470000000  0.5319240000000 1.0
C      1  0.5731820000000  0.5461580000000  0.4673570000000 1.0
C      1  0.4276510000000  0.4538760000000  0.4688900000000 1.0
C      1  0.5426630000000  0.4688650000000  0.5700980000000 1.0
C      1  0.4512070000000  0.4703430000000  0.4288220000000 1.0
C      1  0.5445630000000  0.5325800000000  0.4338420000000 1.0
C      1  0.5754350000000  0.5407490000000  0.4554280000000 1.0
C      1  0.4495450000000  0.5707420000000  0.5323830000000 1.0
C      1  0.5322820000000  0.4586360000000  0.5699810000000 1.0
C      1  0.4260760000000  0.4597630000000  0.4569400000000 1.0
C      1  0.4277250000000  0.5293220000000  0.5419680000000 1.0
C      1  0.5704090000000  0.4685340000000  0.5413190000000 1.0
C      1  0.5445450000000  0.4274510000000  0.5413420000000 1.0
C      1  0.5431890000000  0.5696880000000  0.4677420000000 1.0
C      1  0.4568330000000  0.4353130000000  0.4664790000000 1.0
C      1  0.4648120000000  0.5424910000000  0.5657660000000 1.0
C      1  0.4568160000000  0.4584610000000  0.4266130000000 1.0
C      1  0.5343510000000  0.5424160000000  0.4336630000000 1.0
C      1  0.4170250000000  0.5210030000000  0.4673520000000 1.0
C      1  0.5181700000000  0.4665400000000  0.4149160000000 1.0
C      1  0.4701460000000  0.4174100000000  0.5198510000000 1.0
C      1  0.5820000000000  0.4790490000000  0.4670200000000 1.0
C      1  0.4141330000000  0.4835280000000  0.5216160000000 1.0
C      1  0.5831730000000  0.5188930000000  0.5281610000000 1.0
C      1  0.4812580000000  0.5330050000000  0.4183750000000 1.0
C      1  0.5180320000000  0.5218250000000  0.5835240000000 1.0
C      1  0.4801140000000  0.4751910000000  0.5829790000000 1.0
C      1  0.5214050000000  0.5845460000000  0.5222190000000 1.0
C      1  0.4664840000000  0.5834880000000  0.4860580000000 1.0
C      1  0.5344020000000  0.4171940000000  0.4813330000000 1.0
C      1  0.5212360000000  0.4177660000000  0.4773750000000 1.0
C      1  0.4775090000000  0.5198150000000  0.4177760000000 1.0
C      1  0.4157810000000  0.4705990000000  0.5183800000000 1.0
C      1  0.4790580000000  0.5852270000000  0.4816050000000 1.0
C      1  0.4828470000000  0.4171100000000  0.5247020000000 1.0
C      1  0.5169230000000  0.5831420000000  0.5348460000000 1.0
C      1  0.5217520000000  0.4797340000000  0.4155510000000 1.0
C      1  0.5304820000000  0.5165510000000  0.5828420000000 1.0
C      1  0.4665970000000  0.4778200000000  0.5832200000000 1.0
C      1  0.5832250000000  0.5249060000000  0.5159150000000 1.0
C      1  0.5844330000000  0.4767370000000  0.4801930000000 1.0
C      1  0.4174160000000  0.5239050000000  0.4806610000000 1.0
C      1  0.5595810000000  0.5241300000000  0.5104340000000 1.0
C      1  0.5245970000000  0.5117860000000  0.5594040000000 1.0
C      1  0.5103550000000  0.5604050000000  0.5284630000000 1.0
C      1  0.4398300000000  0.4756810000000  0.5109420000000 1.0
C      1  0.5612860000000  0.4771840000000  0.4885060000000 1.0
C      1  0.4415140000000  0.5236030000000  0.4892390000000 1.0
C      1  0.4787510000000  0.4877590000000  0.5578770000000 1.0
C      1  0.5223420000000  0.4882110000000  0.4392820000000 1.0
C      1  0.4763360000000  0.5108530000000  0.4410420000000 1.0
C      1  0.4886960000000  0.4406160000000  0.5247310000000 1.0
C      1  0.5116810000000  0.4406370000000  0.4767190000000 1.0
C      1  0.4832580000000  0.5620320000000  0.4816600000000 1.0
C      1  0.5201220000000  0.5617180000000  0.5175920000000 1.0
C      1  0.5120420000000  0.5232550000000  0.5596580000000 1.0
C      1  0.5598160000000  0.5120410000000  0.5227920000000 1.0
C      1  0.4760460000000  0.4406290000000  0.5131010000000 1.0
C      1  0.4724300000000  0.5604670000000  0.4912620000000 1.0
C      1  0.5214450000000  0.4416390000000  0.4885620000000 1.0
C      1  0.4888440000000  0.4760280000000  0.5595240000000 1.0
C      1  0.4881330000000  0.5209500000000  0.4430320000000 1.0
C      1  0.5103010000000  0.4783890000000  0.4411660000000 1.0
C      1  0.4381780000000  0.4884140000000  0.5194240000000 1.0
C      1  0.4426220000000  0.5120490000000  0.4788860000000 1.0
C      1  0.5592970000000  0.4855120000000  0.4737710000000 1.0
C      1  0.5696920000000  0.5065500000000  0.4654440000000 1.0
C      1  0.5106840000000  0.4709440000000  0.5690760000000 1.0
C      1  0.4675020000000  0.5703490000000  0.5122280000000 1.0
C      1  0.4316390000000  0.4935240000000  0.4695500000000 1.0
C      1  0.5694910000000  0.4908160000000  0.5282400000000 1.0
C      1  0.4296380000000  0.5054840000000  0.5306700000000 1.0
C      1  0.4894600000000  0.5276380000000  0.5699770000000 1.0
C      1  0.5063230000000  0.5301790000000  0.4305230000000 1.0
C      1  0.4912880000000  0.4681780000000  0.4312560000000 1.0
C      1  0.5324230000000  0.4319140000000  0.5070540000000 1.0
C      1  0.4695350000000  0.4309880000000  0.4924660000000 1.0
C      1  0.5317370000000  0.5668200000000  0.4911500000000 1.0
C      1  0.5095510000000  0.5675470000000  0.4690310000000 1.0
C      1  0.4687610000000  0.5056870000000  0.5689570000000 1.0
C      1  0.5696190000000  0.4724870000000  0.5104070000000 1.0
C      1  0.4898600000000  0.4311000000000  0.4711200000000 1.0
C      1  0.4892550000000  0.5697470000000  0.5344890000000 1.0
C      1  0.5114260000000  0.4311190000000  0.5297870000000 1.0
C      1  0.5302870000000  0.4909740000000  0.5691650000000 1.0
C      1  0.5285540000000  0.5096020000000  0.4296650000000 1.0
C      1  0.4703160000000  0.4886740000000  0.4315010000000 1.0
C      1  0.4317270000000  0.5278960000000  0.5110290000000 1.0
C      1  0.4299440000000  0.4700580000000  0.4894240000000 1.0
C      1  0.5703080000000  0.5288930000000  0.4878870000000 1.0
C      1  0.4587570000000  0.5269110000000  0.4347110000000 1.0
C      1  0.5277240000000  0.4354490000000  0.4580440000000 1.0
C      1  0.4349800000000  0.4569170000000  0.5273460000000 1.0
C      1  0.5396270000000  0.4710830000000  0.4331390000000 1.0
C      1  0.4506250000000  0.4710730000000  0.5641290000000 1.0
C      1  0.5458610000000  0.5256690000000  0.5640010000000 1.0
C      1  0.4818690000000  0.5693370000000  0.4599010000000 1.0
C      1  0.5272280000000  0.5630040000000  0.5464160000000 1.0
C      1  0.4742460000000  0.4355640000000  0.5437670000000 1.0
C      1  0.5641580000000  0.5440430000000  0.5245410000000 1.0
C      1  0.4356020000000  0.5418760000000  0.4738570000000 1.0
C      1  0.5673320000000  0.4573100000000  0.4768180000000 1.0
C      1  0.5272030000000  0.4519130000000  0.4338870000000 1.0
C      1  0.4362290000000  0.5289260000000  0.4520340000000 1.0
C      1  0.4546660000000  0.4364500000000  0.5281730000000 1.0
C      1  0.4728040000000  0.5494260000000  0.4370680000000 1.0
C      1  0.4743290000000  0.4563220000000  0.5648660000000 1.0
C      1  0.5275930000000  0.5408360000000  0.5656090000000 1.0
C      1  0.5611080000000  0.4688160000000  0.4530360000000 1.0
C      1  0.5650760000000  0.5258360000000  0.5437900000000 1.0
C      1  0.4309980000000  0.4831780000000  0.5415990000000 1.0
C      1  0.5428220000000  0.5677510000000  0.5182110000000 1.0
C      1  0.5511960000000  0.4347170000000  0.4738210000000 1.0
C      1  0.4544940000000  0.5637340000000  0.4747900000000 1.0
C      1  0.4340340000000  0.5514250000000  0.5054960000000 1.0
C      1  0.5507960000000  0.4996610000000  0.4339110000000 1.0
C      1  0.5050770000000  0.4367090000000  0.5530990000000 1.0
C      1  0.5675240000000  0.4486350000000  0.5047420000000 1.0
C      1  0.4349370000000  0.4471160000000  0.4963070000000 1.0
C      1  0.5658750000000  0.5524770000000  0.4932020000000 1.0
C      1  0.4481490000000  0.4974230000000  0.4352420000000 1.0
C      1  0.5543190000000  0.4947790000000  0.5633800000000 1.0
C      1  0.4439720000000  0.5016480000000  0.5647610000000 1.0
C      1  0.4964880000000  0.5618570000000  0.5566130000000 1.0
C      1  0.5073970000000  0.5665210000000  0.4447070000000 1.0
C      1  0.4986960000000  0.4359710000000  0.4488370000000 1.0
C      1  0.5570840000000  0.4377880000000  0.5032090000000 1.0
C      1  0.5035950000000  0.5549130000000  0.4362470000000 1.0
C      1  0.4321570000000  0.5050580000000  0.5563050000000 1.0
C      1  0.4436340000000  0.5630630000000  0.5059550000000 1.0
C      1  0.4458300000000  0.4372470000000  0.4979050000000 1.0
C      1  0.5571010000000  0.5647410000000  0.4917830000000 1.0
C      1  0.4979220000000  0.4449410000000  0.4374420000000 1.0
C      1  0.4973240000000  0.5506180000000  0.5660000000000 1.0
C      1  0.5051650000000  0.4476240000000  0.5640240000000 1.0
C      1  0.5648560000000  0.4948530000000  0.5523780000000 1.0
C      1  0.5612080000000  0.4993680000000  0.4440340000000 1.0
C      1  0.4376720000000  0.4989010000000  0.4455440000000 1.0
C      1  0.5005320000000  0.4765820000000  0.5340240000000 1.0
C      1  0.4760500000000  0.5353610000000  0.5021550000000 1.0
C      1  0.5348390000000  0.5000680000000  0.4742820000000 1.0
C      1  0.4987850000000  0.5247150000000  0.5345590000000 1.0
C      1  0.5014890000000  0.5231850000000  0.4656270000000 1.0
C      1  0.4983150000000  0.4756660000000  0.4661300000000 1.0
C      1  0.5239280000000  0.4664030000000  0.5005940000000 1.0
C      1  0.4757210000000  0.4660160000000  0.4993710000000 1.0
C      1  0.5235850000000  0.5314590000000  0.4966710000000 1.0
C      1  0.4664420000000  0.4991110000000  0.4765250000000 1.0
C      1  0.5339410000000  0.4995810000000  0.5232350000000 1.0
C      1  0.4671300000000  0.5020120000000  0.5234470000000 1.0
C      1  0.4762070000000  0.5009650000000  0.5342700000000 1.0
C      1  0.5338210000000  0.4766740000000  0.5007300000000 1.0
C      1  0.5031490000000  0.5320280000000  0.4763600000000 1.0
C      1  0.5240470000000  0.4994160000000  0.5334990000000 1.0
C      1  0.5240710000000  0.5004800000000  0.4650830000000 1.0
C      1  0.4763100000000  0.4992430000000  0.4664020000000 1.0
C      1  0.4666520000000  0.5248280000000  0.5018020000000 1.0
C      1  0.4653670000000  0.4756100000000  0.4992000000000 1.0
C      1  0.5348140000000  0.5229180000000  0.4977770000000 1.0
C      1  0.4988740000000  0.4660350000000  0.4765310000000 1.0
C      1  0.4983960000000  0.5352120000000  0.5251930000000 1.0
C      1  0.5007160000000  0.4663990000000  0.5240410000000 1.0
C      1  0.4882170000000  0.4358190000000  0.4577740000000 1.0
C      1  0.4330960000000  0.4563390000000  0.4843720000000 1.0
C      1  0.4563300000000  0.4851270000000  0.4342310000000 1.0
C      1  0.5175680000000  0.5661490000000  0.4563090000000 1.0
C      1  0.4858840000000  0.5638430000000  0.5473600000000 1.0
C      1  0.5160030000000  0.4345150000000  0.5433530000000 1.0
C      1  0.5674740000000  0.5422290000000  0.4829220000000 1.0
C      1  0.4332980000000  0.5409230000000  0.5162450000000 1.0
C      1  0.5673700000000  0.4587490000000  0.5157180000000 1.0
C      1  0.5421740000000  0.5103570000000  0.4338820000000 1.0
C      1  0.4558550000000  0.5088310000000  0.5639870000000 1.0
C      1  0.5431710000000  0.4846340000000  0.5658970000000 1.0
C      1  0.4365110000000  0.4901320000000  0.4565800000000 1.0
C      1  0.4565330000000  0.4361790000000  0.4892330000000 1.0
C      1  0.4880140000000  0.4552480000000  0.4367000000000 1.0
C      1  0.5638030000000  0.5100500000000  0.4528520000000 1.0
C      1  0.5668410000000  0.4845520000000  0.5414580000000 1.0
C      1  0.4321990000000  0.5139500000000  0.5437330000000 1.0
C      1  0.5441600000000  0.5654040000000  0.4831780000000 1.0
C      1  0.5451640000000  0.4371990000000  0.5107590000000 1.0
C      1  0.4538160000000  0.5660110000000  0.5169360000000 1.0
C      1  0.5105790000000  0.5428690000000  0.4356590000000 1.0
C      1  0.5160450000000  0.4579560000000  0.5658630000000 1.0
C      1  0.4873420000000  0.5411700000000  0.5657820000000 1.0
C      1  0.4647220000000  0.5142770000000  0.4758360000000 1.0
C      1  0.5132300000000  0.4748880000000  0.4635230000000 1.0
C      1  0.4750100000000  0.4645180000000  0.5143710000000 1.0
C      1  0.5353030000000  0.4849270000000  0.4743420000000 1.0
C      1  0.4636000000000  0.4873460000000  0.5238900000000 1.0
C      1  0.5354990000000  0.5146590000000  0.5238530000000 1.0
C      1  0.4865520000000  0.5258540000000  0.4647530000000 1.0
C      1  0.5139060000000  0.5248260000000  0.5353170000000 1.0
C      1  0.4853490000000  0.4757180000000  0.5356000000000 1.0
C      1  0.5229110000000  0.5356490000000  0.5115410000000 1.0
C      1  0.4767290000000  0.5362210000000  0.4869050000000 1.0
C      1  0.5254090000000  0.4639940000000  0.4857110000000 1.0
C      1  0.5138980000000  0.4644450000000  0.4752270000000 1.0
C      1  0.4757190000000  0.5144840000000  0.4649360000000 1.0
C      1  0.4638150000000  0.4757340000000  0.5141660000000 1.0
C      1  0.4885330000000  0.5362860000000  0.4773010000000 1.0
C      1  0.4857780000000  0.4646720000000  0.5247120000000 1.0
C      1  0.5136370000000  0.5360030000000  0.5239920000000 1.0
C      1  0.5240320000000  0.4855330000000  0.4633590000000 1.0
C      1  0.5246790000000  0.5142850000000  0.5352420000000 1.0
C      1  0.4739580000000  0.4860930000000  0.5359720000000 1.0
C      1  0.5353290000000  0.5252780000000  0.5128400000000 1.0
C      1  0.5361820000000  0.4753900000000  0.4859000000000 1.0
C      1  0.4655810000000  0.5249400000000  0.4866790000000 1.0
C      1  0.4460050000000  0.5218740000000  0.5449580000000 1.0
C      1  0.5228160000000  0.5418850000000  0.4429600000000 1.0
C      1  0.5436820000000  0.4461360000000  0.5219940000000 1.0
C      1  0.5535340000000  0.4775490000000  0.5418250000000 1.0
C      1  0.4450950000000  0.4784760000000  0.4575820000000 1.0
C      1  0.5553660000000  0.5220340000000  0.4530970000000 1.0
C      1  0.4760380000000  0.4555250000000  0.4455540000000 1.0
C      1  0.5229420000000  0.4580210000000  0.5526160000000 1.0
C      1  0.4763230000000  0.5424780000000  0.5570290000000 1.0
C      1  0.4558700000000  0.5527300000000  0.5238820000000 1.0
C      1  0.5441790000000  0.5517230000000  0.4761270000000 1.0
C      1  0.4570750000000  0.4446420000000  0.4779700000000 1.0
C      1  0.5228770000000  0.4475550000000  0.5421940000000 1.0
C      1  0.5438500000000  0.5212030000000  0.4427450000000 1.0
C      1  0.4460920000000  0.5417150000000  0.5236810000000 1.0
C      1  0.4747640000000  0.5541970000000  0.5468450000000 1.0
C      1  0.4774830000000  0.4449280000000  0.4567770000000 1.0
C      1  0.5247660000000  0.5521800000000  0.4541300000000 1.0
C      1  0.4561780000000  0.4779780000000  0.4474870000000 1.0
C      1  0.4564940000000  0.5206030000000  0.5560000000000 1.0
C      1  0.5432940000000  0.4777730000000  0.5524370000000 1.0
C      1  0.5535670000000  0.4573420000000  0.5223700000000 1.0
C      1  0.5544860000000  0.5412070000000  0.4758680000000 1.0
C      1  0.4466890000000  0.4558120000000  0.4767880000000 1.0
C      1  0.5155640000000  0.4204740000000  0.5218330000000 1.0
C      1  0.4193030000000  0.5223710000000  0.5129350000000 1.0
C      1  0.5210530000000  0.5133120000000  0.4185360000000 1.0
C      1  0.4873110000000  0.5803820000000  0.5254590000000 1.0
C      1  0.5110260000000  0.5768270000000  0.4797570000000 1.0
C      1  0.4873350000000  0.4199120000000  0.4789550000000 1.0
C      1  0.5816910000000  0.4798120000000  0.5112320000000 1.0
C      1  0.4197500000000  0.4796520000000  0.4874570000000 1.0
C      1  0.5807430000000  0.5212940000000  0.4829190000000 1.0
C      1  0.4779510000000  0.4861330000000  0.4202180000000 1.0
C      1  0.5222430000000  0.4896210000000  0.5805620000000 1.0
C      1  0.4751640000000  0.5090930000000  0.5807880000000 1.0
C      1  0.4187460000000  0.5115230000000  0.5224030000000 1.0
C      1  0.5254360000000  0.4204140000000  0.5106040000000 1.0
C      1  0.5098870000000  0.5230700000000  0.4191070000000 1.0
C      1  0.5813070000000  0.4911150000000  0.5206880000000 1.0
C      1  0.5806890000000  0.5098830000000  0.4733270000000 1.0
C      1  0.4203100000000  0.4906950000000  0.4771830000000 1.0
C      1  0.4767460000000  0.5806580000000  0.5147100000000 1.0
C      1  0.4776980000000  0.4200080000000  0.4902510000000 1.0
C      1  0.5214990000000  0.5764680000000  0.4901540000000 1.0
C      1  0.4888300000000  0.4759400000000  0.4197540000000 1.0
C      1  0.4848970000000  0.5203620000000  0.5810410000000 1.0
C      1  0.5126990000000  0.4782660000000  0.5807280000000 1.0
C      1  0.4776920000000  0.5321320000000  0.5450000000000 1.0
C      1  0.5337340000000  0.5409850000000  0.4758710000000 1.0
C      1  0.5428920000000  0.4787740000000  0.5311770000000 1.0
C      1  0.5217170000000  0.4686920000000  0.5420990000000 1.0
C      1  0.4773610000000  0.4669400000000  0.4565520000000 1.0
C      1  0.5226360000000  0.5309620000000  0.4544350000000 1.0
C      1  0.4677650000000  0.4562230000000  0.4784680000000 1.0
C      1  0.5323250000000  0.4569830000000  0.5209560000000 1.0
C      1  0.4673460000000  0.5433150000000  0.5237170000000 1.0
C      1  0.4567110000000  0.5212030000000  0.5338260000000 1.0
C      1  0.5447930000000  0.5204410000000  0.4649250000000 1.0
C      1  0.4563060000000  0.4780570000000  0.4682660000000 1.0
C      1  0.5321560000000  0.4790900000000  0.5421650000000 1.0
C      1  0.5444740000000  0.5303190000000  0.4761600000000 1.0
C      1  0.4771080000000  0.5438400000000  0.5350040000000 1.0
C      1  0.4675640000000  0.5210960000000  0.5447670000000 1.0
C      1  0.4672030000000  0.4780140000000  0.4574260000000 1.0
C      1  0.5332090000000  0.5204560000000  0.4546080000000 1.0
C      1  0.4566100000000  0.4669930000000  0.4782870000000 1.0
C      1  0.4571220000000  0.5318350000000  0.5233150000000 1.0
C      1  0.5429550000000  0.4681750000000  0.5208010000000 1.0
C      1  0.5217510000000  0.4575910000000  0.5313510000000 1.0
C      1  0.5234360000000  0.5415020000000  0.4650990000000 1.0
C      1  0.4781160000000  0.4563520000000  0.4677970000000 1.0
C      1  0.4614190000000  0.4530920000000  0.4401020000000 1.0
C      1  0.4474400000000  0.4406330000000  0.4572100000000 1.0
C      1  0.4400500000000  0.4646710000000  0.4534080000000 1.0
C      1  0.5439320000000  0.5519000000000  0.4386820000000 1.0
C      1  0.4550530000000  0.5515370000000  0.5608720000000 1.0
C      1  0.5373680000000  0.4536400000000  0.5570440000000 1.0
C      1  0.5486910000000  0.5570450000000  0.4621740000000 1.0
C      1  0.4504320000000  0.5562870000000  0.5371480000000 1.0
C      1  0.5474730000000  0.4414610000000  0.5360110000000 1.0
C      1  0.5611680000000  0.5364710000000  0.4507720000000 1.0
C      1  0.4399320000000  0.5357310000000  0.5482610000000 1.0
C      1  0.5583060000000  0.4626450000000  0.5468970000000 1.0
C      1  0.4508740000000  0.4649480000000  0.4430620000000 1.0
C      1  0.4421240000000  0.4529660000000  0.4629300000000 1.0
C      1  0.4570770000000  0.4408510000000  0.4467580000000 1.0
C      1  0.5540460000000  0.5418060000000  0.4389490000000 1.0
C      1  0.5478830000000  0.4635160000000  0.5573010000000 1.0
C      1  0.4454330000000  0.5409160000000  0.5607290000000 1.0
C      1  0.5587350000000  0.5460000000000  0.4626370000000 1.0
C      1  0.5580720000000  0.4523790000000  0.5364620000000 1.0
C      1  0.4401360000000  0.5454770000000  0.5373650000000 1.0
C      1  0.5390220000000  0.5576630000000  0.4510960000000 1.0
C      1  0.5365920000000  0.4438340000000  0.5461960000000 1.0
C      1  0.4599570000000  0.5589870000000  0.5491060000000 1.0
C      1  0.5127720000000  0.5432270000000  0.4758970000000 1.0
C      1  0.5451250000000  0.4788600000000  0.5097400000000 1.0
C      1  0.4784580000000  0.5099990000000  0.5454740000000 1.0
C      1  0.4895990000000  0.4549400000000  0.4785400000000 1.0
C      1  0.5101280000000  0.4553430000000  0.5216870000000 1.0
C      1  0.4887640000000  0.5463430000000  0.5245970000000 1.0
C      1  0.4557410000000  0.5223530000000  0.5111870000000 1.0
C      1  0.5461340000000  0.5206370000000  0.4881630000000 1.0
C      1  0.4545260000000  0.4772840000000  0.4896810000000 1.0
C      1  0.5219000000000  0.4903140000000  0.5446700000000 1.0
C      1  0.4775470000000  0.4893890000000  0.4555240000000 1.0
C      1  0.5221240000000  0.5095370000000  0.4538570000000 1.0
C      1  0.5463850000000  0.5088660000000  0.4755660000000 1.0
C      1  0.4771580000000  0.5462100000000  0.5122480000000 1.0
C      1  0.5102290000000  0.4786750000000  0.5447840000000 1.0
C      1  0.4553700000000  0.4896540000000  0.4785540000000 1.0
C      1  0.4555800000000  0.5110220000000  0.5222500000000 1.0
C      1  0.5450830000000  0.4903470000000  0.5210640000000 1.0
C      1  0.5217560000000  0.4553010000000  0.5099170000000 1.0
C      1  0.5238030000000  0.5427060000000  0.4871130000000 1.0
C      1  0.4780280000000  0.4548750000000  0.4903630000000 1.0
C      1  0.4896940000000  0.5219320000000  0.5457230000000 1.0
C      1  0.4887870000000  0.4775110000000  0.4551830000000 1.0
C      1  0.5106230000000  0.5209240000000  0.4542270000000 1.0
C      1  0.4887030000000  0.4864760000000  0.5870890000000 1.0
C      1  0.5886330000000  0.4884200000000  0.4877410000000 1.0
C      1  0.4892140000000  0.5879560000000  0.4916590000000 1.0
C      1  0.4124500000000  0.5136170000000  0.4895180000000 1.0
C      1  0.5872970000000  0.5137430000000  0.5068760000000 1.0
C      1  0.4100140000000  0.4914480000000  0.5102590000000 1.0
C      1  0.5084920000000  0.5114650000000  0.5875830000000 1.0
C      1  0.4875040000000  0.5100790000000  0.4135200000000 1.0
C      1  0.5112740000000  0.4894080000000  0.4122310000000 1.0
C      1  0.5117650000000  0.4141850000000  0.4881670000000 1.0
C      1  0.4917580000000  0.4140050000000  0.5131600000000 1.0
C      1  0.5107650000000  0.5871850000000  0.5125580000000 1.0
C      1  0.5407970000000  0.4552770000000  0.4637240000000 1.0
C      1  0.4506820000000  0.4699110000000  0.5410300000000 1.0
C      1  0.4699420000000  0.5492480000000  0.4603350000000 1.0
C      1  0.5406330000000  0.5484150000000  0.5305830000000 1.0
END
