TITL C-3151192-8964-96 11.2642641481763 1000000 -3674.11241347464 0 0 520 (C1) n - 1
REM
REM in /scratch/bkarasulu/Only-C240/Try4-Only-SYMOP24
REM
REM
REM
REM
REM
REM ./C.cell (018bbde761a0794ceee8127bb1f748ef)
REM
REM compiler GCC version 9.2.1 20190827 (Red Hat 9.2.1-1)
REM options -cpp -mtune=generic -march=x86-64 -g -O0 -fpre-include=/usr/include/finclude/math-vector-fortran.h
REM seed -946316277 -1001489619 -606722949 653028840 -1074080102 -1591654299 253703268 -891230765 -551704401 576997648 1832798046 -323608949 -1026269233 636125699 -1038441347 -432671188 -958874686 -1521494633 1988216142 -504664890 2094089533 2025638868 975787435 431007098 -283878359 -1794844063 483384619 927364472 181778494 136196685 610385470 673440133 2010119048
REM
CELL 1.54180  100.00000  100.00000  100.00000   90.00000   90.00000   90.00000
LATT -1
SFAC C  
C      1  0.4189460000000  0.4974450000000  0.4809750000000 1.0
C      1  0.4965860000000  0.4809690000000  0.4174130000000 1.0
C      1  0.4772380000000  0.4186490000000  0.4999640000000 1.0
C      1  0.4212650000000  0.5072370000000  0.5235600000000 1.0
C      1  0.5810860000000  0.4927340000000  0.5230740000000 1.0
C      1  0.5816930000000  0.5022080000000  0.4783960000000 1.0
C      1  0.4901950000000  0.5215580000000  0.5784650000000 1.0
C      1  0.5093390000000  0.4794900000000  0.5788220000000 1.0
C      1  0.5044560000000  0.5207080000000  0.4183530000000 1.0
C      1  0.4733300000000  0.5818020000000  0.5061410000000 1.0
C      1  0.5215560000000  0.4206130000000  0.5090420000000 1.0
C      1  0.5167730000000  0.5816440000000  0.4978790000000 1.0
C      1  0.4190320000000  0.4819900000000  0.4978860000000 1.0
C      1  0.4951340000000  0.4177650000000  0.4844310000000 1.0
C      1  0.4802590000000  0.4982750000000  0.4184390000000 1.0
C      1  0.4213830000000  0.5234740000000  0.5068630000000 1.0
C      1  0.5823130000000  0.5179460000000  0.4959680000000 1.0
C      1  0.5808310000000  0.4772890000000  0.5032500000000 1.0
C      1  0.4915960000000  0.5797280000000  0.5222460000000 1.0
C      1  0.5010460000000  0.5824820000000  0.4813400000000 1.0
C      1  0.5016460000000  0.4198950000000  0.5254390000000 1.0
C      1  0.4788570000000  0.5103830000000  0.5784570000000 1.0
C      1  0.5214360000000  0.5039400000000  0.4183100000000 1.0
C      1  0.5204380000000  0.4903730000000  0.5788270000000 1.0
C      1  0.5252220000000  0.5473530000000  0.4474000000000 1.0
C      1  0.5437340000000  0.4482960000000  0.5308570000000 1.0
C      1  0.4595990000000  0.5273190000000  0.5423510000000 1.0
C      1  0.5313960000000  0.4565680000000  0.5500130000000 1.0
C      1  0.4767020000000  0.5444200000000  0.5399940000000 1.0
C      1  0.4734200000000  0.4578120000000  0.4456880000000 1.0
C      1  0.5448800000000  0.5544610000000  0.4767100000000 1.0
C      1  0.4582390000000  0.4440990000000  0.4715380000000 1.0
C      1  0.4596340000000  0.5435220000000  0.5241180000000 1.0
C      1  0.4335050000000  0.4640600000000  0.4515280000000 1.0
C      1  0.5544390000000  0.5287610000000  0.4537500000000 1.0
C      1  0.5512200000000  0.4681140000000  0.5426830000000 1.0
C      1  0.5301710000000  0.4410470000000  0.5495710000000 1.0
C      1  0.5421800000000  0.5306020000000  0.4438160000000 1.0
C      1  0.4399250000000  0.5479580000000  0.5383310000000 1.0
C      1  0.5275370000000  0.5576790000000  0.4595680000000 1.0
C      1  0.4651170000000  0.5544140000000  0.5447610000000 1.0
C      1  0.4760580000000  0.4460170000000  0.4554600000000 1.0
C      1  0.5496100000000  0.4688370000000  0.5584390000000 1.0
C      1  0.4551940000000  0.4726380000000  0.4460240000000 1.0
C      1  0.4537570000000  0.5352490000000  0.5549530000000 1.0
C      1  0.4451260000000  0.4536200000000  0.4716970000000 1.0
C      1  0.5604440000000  0.4502190000000  0.5299960000000 1.0
C      1  0.5550970000000  0.5428630000000  0.4733600000000 1.0
C      1  0.4741200000000  0.5364470000000  0.4440060000000 1.0
C      1  0.5355450000000  0.4417700000000  0.4746550000000 1.0
C      1  0.4442800000000  0.4758190000000  0.5359840000000 1.0
C      1  0.4752410000000  0.4670590000000  0.5574100000000 1.0
C      1  0.5253890000000  0.5339400000000  0.5578110000000 1.0
C      1  0.5274290000000  0.4636290000000  0.4419250000000 1.0
C      1  0.5357780000000  0.5569610000000  0.5259160000000 1.0
C      1  0.4635370000000  0.4455230000000  0.5265460000000 1.0
C      1  0.4635070000000  0.5567990000000  0.4744390000000 1.0
C      1  0.4428750000000  0.5260170000000  0.4648660000000 1.0
C      1  0.5571810000000  0.4736250000000  0.4632060000000 1.0
C      1  0.5572820000000  0.5254530000000  0.5362750000000 1.0
C      1  0.4730560000000  0.4459280000000  0.5363010000000 1.0
C      1  0.5365160000000  0.4739350000000  0.4422370000000 1.0
C      1  0.4432360000000  0.5355260000000  0.4747640000000 1.0
C      1  0.4731810000000  0.5577360000000  0.4650200000000 1.0
C      1  0.5258520000000  0.5565530000000  0.5356570000000 1.0
C      1  0.5253460000000  0.4418140000000  0.4653860000000 1.0
C      1  0.5349060000000  0.5242820000000  0.5577700000000 1.0
C      1  0.4643120000000  0.5267510000000  0.4428160000000 1.0
C      1  0.4659280000000  0.4768210000000  0.5572260000000 1.0
C      1  0.4433670000000  0.4664050000000  0.5261440000000 1.0
C      1  0.5569000000000  0.4638620000000  0.4728590000000 1.0
C      1  0.5582920000000  0.5353620000000  0.5269940000000 1.0
C      1  0.5159060000000  0.4612780000000  0.4524420000000 1.0
C      1  0.4635670000000  0.4547670000000  0.5149360000000 1.0
C      1  0.4529760000000  0.5148270000000  0.4636870000000 1.0
C      1  0.5155650000000  0.5345600000000  0.5467870000000 1.0
C      1  0.4855330000000  0.4658750000000  0.5466750000000 1.0
C      1  0.4817860000000  0.5354610000000  0.4561270000000 1.0
C      1  0.4643720000000  0.5462780000000  0.4848000000000 1.0
C      1  0.5358450000000  0.4525760000000  0.4850340000000 1.0
C      1  0.5357340000000  0.5453190000000  0.5172150000000 1.0
C      1  0.4547300000000  0.4863700000000  0.5353970000000 1.0
C      1  0.5468830000000  0.5147010000000  0.5357160000000 1.0
C      1  0.5472020000000  0.4847960000000  0.4629230000000 1.0
C      1  0.5177310000000  0.4541560000000  0.4653650000000 1.0
C      1  0.4636800000000  0.5153170000000  0.4525990000000 1.0
C      1  0.4529310000000  0.4655420000000  0.5146520000000 1.0
C      1  0.5170760000000  0.5447430000000  0.5354080000000 1.0
C      1  0.4847720000000  0.5476590000000  0.4636740000000 1.0
C      1  0.4843540000000  0.4554110000000  0.5357020000000 1.0
C      1  0.4656460000000  0.4865090000000  0.5461160000000 1.0
C      1  0.5362640000000  0.4849870000000  0.4523290000000 1.0
C      1  0.5358200000000  0.5143900000000  0.5465760000000 1.0
C      1  0.4539560000000  0.5353080000000  0.4847960000000 1.0
C      1  0.5481360000000  0.5377810000000  0.5152330000000 1.0
C      1  0.5466010000000  0.4639410000000  0.4836600000000 1.0
C      1  0.4772920000000  0.5145570000000  0.5333170000000 1.0
C      1  0.5159590000000  0.5376230000000  0.4738620000000 1.0
C      1  0.5361460000000  0.4752980000000  0.5133760000000 1.0
C      1  0.4735840000000  0.4848160000000  0.4627460000000 1.0
C      1  0.5262830000000  0.5161550000000  0.4623110000000 1.0
C      1  0.5251840000000  0.4850380000000  0.5341230000000 1.0
C      1  0.5150200000000  0.4636850000000  0.5232420000000 1.0
C      1  0.4887140000000  0.5353630000000  0.5224740000000 1.0
C      1  0.4852340000000  0.4629240000000  0.4732440000000 1.0
C      1  0.5378910000000  0.5260660000000  0.4838010000000 1.0
C      1  0.4633920000000  0.4731880000000  0.4842470000000 1.0
C      1  0.4667800000000  0.5246800000000  0.5127820000000 1.0
C      1  0.4776100000000  0.5351470000000  0.5121780000000 1.0
C      1  0.5150280000000  0.4735790000000  0.5342590000000 1.0
C      1  0.5372320000000  0.5154940000000  0.4725280000000 1.0
C      1  0.4741610000000  0.4629330000000  0.4839630000000 1.0
C      1  0.5266280000000  0.4638870000000  0.5134450000000 1.0
C      1  0.5269860000000  0.5369860000000  0.4845890000000 1.0
C      1  0.5154650000000  0.5271310000000  0.4628480000000 1.0
C      1  0.4879400000000  0.5250850000000  0.5333280000000 1.0
C      1  0.4847440000000  0.4739660000000  0.4624140000000 1.0
C      1  0.5363500000000  0.4854640000000  0.5246640000000 1.0
C      1  0.4633540000000  0.4845230000000  0.4738700000000 1.0
C      1  0.4663010000000  0.5144560000000  0.5235190000000 1.0
C      1  0.5544860000000  0.4789460000000  0.5672840000000 1.0
C      1  0.4745420000000  0.5641680000000  0.5519650000000 1.0
C      1  0.5650660000000  0.5485480000000  0.4826400000000 1.0
C      1  0.5493060000000  0.5237540000000  0.4317580000000 1.0
C      1  0.4410920000000  0.4744590000000  0.4455660000000 1.0
C      1  0.4470460000000  0.5248150000000  0.5638710000000 1.0
C      1  0.4868740000000  0.4417820000000  0.4452050000000 1.0
C      1  0.5190790000000  0.5681020000000  0.4528940000000 1.0
C      1  0.5189860000000  0.4341790000000  0.5554920000000 1.0
C      1  0.5696460000000  0.4460080000000  0.5197680000000 1.0
C      1  0.4339920000000  0.5529600000000  0.5255400000000 1.0
C      1  0.4403360000000  0.4407480000000  0.4782390000000 1.0
C      1  0.5553540000000  0.5582490000000  0.4876390000000 1.0
C      1  0.4747960000000  0.5533270000000  0.5631580000000 1.0
C      1  0.5643920000000  0.4846810000000  0.5597090000000 1.0
C      1  0.5630980000000  0.4351820000000  0.5141730000000 1.0
C      1  0.4506630000000  0.4323020000000  0.4788570000000 1.0
C      1  0.4462450000000  0.5623140000000  0.5239350000000 1.0
C      1  0.4821400000000  0.4515090000000  0.4354850000000 1.0
C      1  0.5152020000000  0.4431450000000  0.5654690000000 1.0
C      1  0.5146320000000  0.5578140000000  0.4436200000000 1.0
C      1  0.5596100000000  0.5240060000000  0.4403620000000 1.0
C      1  0.4352780000000  0.5256360000000  0.5537980000000 1.0
C      1  0.4284290000000  0.4769050000000  0.4518550000000 1.0
C      1  0.5739230000000  0.5376220000000  0.4875200000000 1.0
C      1  0.5442710000000  0.4837650000000  0.5770800000000 1.0
C      1  0.4819190000000  0.5736400000000  0.5434730000000 1.0
C      1  0.5792780000000  0.4556120000000  0.5129830000000 1.0
C      1  0.4247050000000  0.5446640000000  0.5173100000000 1.0
C      1  0.4244880000000  0.4634390000000  0.4884590000000 1.0
C      1  0.5401450000000  0.5142520000000  0.4253020000000 1.0
C      1  0.4623810000000  0.4889170000000  0.4241340000000 1.0
C      1  0.4550230000000  0.5180410000000  0.5742220000000 1.0
C      1  0.4853220000000  0.4235630000000  0.4661390000000 1.0
C      1  0.5112610000000  0.5762160000000  0.4620340000000 1.0
C      1  0.5117200000000  0.4234380000000  0.5469530000000 1.0
C      1  0.5695780000000  0.4865520000000  0.5473150000000 1.0
C      1  0.5348440000000  0.5760740000000  0.4873050000000 1.0
C      1  0.4842910000000  0.5426480000000  0.5690350000000 1.0
C      1  0.5752070000000  0.5119950000000  0.4611800000000 1.0
C      1  0.4304240000000  0.5166800000000  0.5423170000000 1.0
C      1  0.4250800000000  0.4866820000000  0.4620930000000 1.0
C      1  0.5504770000000  0.4309960000000  0.5126410000000 1.0
C      1  0.4593060000000  0.4259050000000  0.4886670000000 1.0
C      1  0.4563370000000  0.5698100000000  0.5152480000000 1.0
C      1  0.4874000000000  0.4620110000000  0.4264850000000 1.0
C      1  0.5142980000000  0.4571310000000  0.5707060000000 1.0
C      1  0.5151280000000  0.5378310000000  0.4254920000000 1.0
C      1  0.4514120000000  0.5660210000000  0.4920120000000 1.0
C      1  0.5686860000000  0.4909810000000  0.4526830000000 1.0
C      1  0.4914640000000  0.4556870000000  0.5678740000000 1.0
C      1  0.4519890000000  0.4340280000000  0.5102090000000 1.0
C      1  0.5456670000000  0.5709010000000  0.5080470000000 1.0
C      1  0.5477570000000  0.4325740000000  0.4909450000000 1.0
C      1  0.5668520000000  0.5081780000000  0.5477650000000 1.0
C      1  0.4348680000000  0.4935670000000  0.5475920000000 1.0
C      1  0.4314820000000  0.5089860000000  0.4544680000000 1.0
C      1  0.4939530000000  0.5481330000000  0.4330810000000 1.0
C      1  0.5102960000000  0.4536630000000  0.4301920000000 1.0
C      1  0.5081660000000  0.5455390000000  0.5672480000000 1.0
C      1  0.4551240000000  0.4944510000000  0.5671650000000 1.0
C      1  0.5681890000000  0.4530230000000  0.4905050000000 1.0
C      1  0.4892170000000  0.5704750000000  0.4553810000000 1.0
C      1  0.4538040000000  0.5099180000000  0.4306410000000 1.0
C      1  0.5450130000000  0.5067910000000  0.5684750000000 1.0
C      1  0.5472140000000  0.4919170000000  0.4317160000000 1.0
C      1  0.5706670000000  0.5449720000000  0.5105850000000 1.0
C      1  0.4334400000000  0.5468050000000  0.4932460000000 1.0
C      1  0.4312800000000  0.4558020000000  0.5096970000000 1.0
C      1  0.4899810000000  0.4351740000000  0.5485140000000 1.0
C      1  0.5064700000000  0.4286860000000  0.4559630000000 1.0
C      1  0.5065050000000  0.5655470000000  0.5464530000000 1.0
C      1  0.4674370000000  0.4811800000000  0.4486360000000 1.0
C      1  0.4815210000000  0.4483880000000  0.4695360000000 1.0
C      1  0.4485170000000  0.4681720000000  0.4791560000000 1.0
C      1  0.4717310000000  0.5200500000000  0.5462740000000 1.0
C      1  0.5297010000000  0.4805440000000  0.5474100000000 1.0
C      1  0.5306930000000  0.5214570000000  0.4482870000000 1.0
C      1  0.4834360000000  0.5486900000000  0.5273670000000 1.0
C      1  0.5189450000000  0.4501210000000  0.5272740000000 1.0
C      1  0.5192990000000  0.5523230000000  0.4709980000000 1.0
C      1  0.4538220000000  0.5308450000000  0.5184480000000 1.0
C      1  0.5495040000000  0.4709960000000  0.5179220000000 1.0
C      1  0.5522700000000  0.5292570000000  0.4790730000000 1.0
C      1  0.4696810000000  0.4486170000000  0.4802430000000 1.0
C      1  0.4796230000000  0.4711180000000  0.4481470000000 1.0
C      1  0.4494990000000  0.4806490000000  0.4706630000000 1.0
C      1  0.4717680000000  0.5483880000000  0.5169130000000 1.0
C      1  0.5308730000000  0.5516830000000  0.4823960000000 1.0
C      1  0.5325710000000  0.4495590000000  0.5195230000000 1.0
C      1  0.4825860000000  0.5314540000000  0.5461110000000 1.0
C      1  0.5193640000000  0.5325920000000  0.4491730000000 1.0
C      1  0.5208040000000  0.4681170000000  0.5482340000000 1.0
C      1  0.4534870000000  0.5204770000000  0.5301810000000 1.0
C      1  0.5514760000000  0.5196230000000  0.4669050000000 1.0
C      1  0.5503200000000  0.4790750000000  0.5310010000000 1.0
C      1  0.4797880000000  0.4905470000000  0.5422440000000 1.0
C      1  0.4901380000000  0.5441890000000  0.4777470000000 1.0
C      1  0.5435030000000  0.4780200000000  0.4883610000000 1.0
C      1  0.4780890000000  0.5105850000000  0.4558250000000 1.0
C      1  0.5220230000000  0.4892390000000  0.4553100000000 1.0
C      1  0.5218780000000  0.5095960000000  0.5426650000000 1.0
C      1  0.4890950000000  0.4577430000000  0.5215400000000 1.0
C      1  0.5154710000000  0.5383960000000  0.5218980000000 1.0
C      1  0.5100270000000  0.4554520000000  0.4780830000000 1.0
C      1  0.5454500000000  0.5225030000000  0.5090770000000 1.0
C      1  0.4568410000000  0.4791580000000  0.5095860000000 1.0
C      1  0.4576060000000  0.5212660000000  0.4889780000000 1.0
C      1  0.4786420000000  0.5432850000000  0.4885910000000 1.0
C      1  0.4907230000000  0.4792660000000  0.5424770000000 1.0
C      1  0.5439890000000  0.4894830000000  0.4769590000000 1.0
C      1  0.4777360000000  0.4573760000000  0.5100910000000 1.0
C      1  0.5215080000000  0.4553090000000  0.4900880000000 1.0
C      1  0.5223830000000  0.5435750000000  0.5100830000000 1.0
C      1  0.4897920000000  0.5230130000000  0.4564490000000 1.0
C      1  0.5109380000000  0.5207710000000  0.5424580000000 1.0
C      1  0.5099320000000  0.4765640000000  0.4547200000000 1.0
C      1  0.5444270000000  0.5105470000000  0.5211350000000 1.0
C      1  0.4566240000000  0.5098890000000  0.4777450000000 1.0
C      1  0.4577500000000  0.4904110000000  0.5211060000000 1.0
C      1  0.4886140000000  0.4367920000000  0.4726400000000 1.0
C      1  0.4392740000000  0.4678310000000  0.4906340000000 1.0
C      1  0.4663040000000  0.4918670000000  0.4389540000000 1.0
C      1  0.4965210000000  0.5529700000000  0.5275310000000 1.0
C      1  0.5082630000000  0.4426140000000  0.5318770000000 1.0
C      1  0.5074160000000  0.5615360000000  0.4695440000000 1.0
C      1  0.4441490000000  0.5315380000000  0.5086430000000 1.0
C      1  0.5581880000000  0.4683530000000  0.5077070000000 1.0
C      1  0.5627110000000  0.5274250000000  0.4883830000000 1.0
C      1  0.4696950000000  0.5098840000000  0.5554910000000 1.0
C      1  0.5320810000000  0.4905140000000  0.5562390000000 1.0
C      1  0.5322550000000  0.5096410000000  0.4395110000000 1.0
C      1  0.4887780000000  0.4724400000000  0.4374570000000 1.0
C      1  0.4398820000000  0.4907580000000  0.4684150000000 1.0
C      1  0.4674750000000  0.4400810000000  0.4921850000000 1.0
C      1  0.4910270000000  0.5335890000000  0.5571980000000 1.0
C      1  0.5119850000000  0.5301840000000  0.4377780000000 1.0
C      1  0.5100280000000  0.4663600000000  0.5578060000000 1.0
C      1  0.4429700000000  0.5110780000000  0.5332710000000 1.0
C      1  0.5607990000000  0.5086120000000  0.4660840000000 1.0
C      1  0.5593440000000  0.4897750000000  0.5344770000000 1.0
C      1  0.4667100000000  0.5588070000000  0.5084350000000 1.0
C      1  0.5282590000000  0.5627410000000  0.4904260000000 1.0
C      1  0.5405650000000  0.4422660000000  0.5102410000000 1.0
C      1  0.5829190000000  0.5160980000000  0.4727310000000 1.0
C      1  0.5216100000000  0.4683020000000  0.5779460000000 1.0
C      1  0.4680860000000  0.5789680000000  0.5197410000000 1.0
C      1  0.5843470000000  0.4795180000000  0.5248190000000 1.0
C      1  0.4217960000000  0.5206170000000  0.5300760000000 1.0
C      1  0.4169070000000  0.4843290000000  0.4746510000000 1.0
C      1  0.5180240000000  0.5266110000000  0.4165720000000 1.0
C      1  0.4833030000000  0.4744280000000  0.4162700000000 1.0
C      1  0.4785450000000  0.5317230000000  0.5770710000000 1.0
C      1  0.4711860000000  0.4166360000000  0.4866830000000 1.0
C      1  0.5232430000000  0.5840630000000  0.4843680000000 1.0
C      1  0.5223640000000  0.4165220000000  0.5224220000000 1.0
C      1  0.5833690000000  0.4694470000000  0.5159450000000 1.0
C      1  0.5142070000000  0.5844630000000  0.4742660000000 1.0
C      1  0.4683650000000  0.5221920000000  0.5777880000000 1.0
C      1  0.5833490000000  0.5255220000000  0.4827610000000 1.0
C      1  0.4211230000000  0.5305540000000  0.5201580000000 1.0
C      1  0.4166980000000  0.4749840000000  0.4846860000000 1.0
C      1  0.5144270000000  0.4180670000000  0.5331900000000 1.0
C      1  0.4816070000000  0.4158570000000  0.4779010000000 1.0
C      1  0.4787030000000  0.5783540000000  0.5295080000000 1.0
C      1  0.4740820000000  0.4846580000000  0.4167160000000 1.0
C      1  0.5311630000000  0.4784090000000  0.5786110000000 1.0
C      1  0.5278330000000  0.5171240000000  0.4169870000000 1.0
C      1  0.4972520000000  0.5806450000000  0.4599350000000 1.0
C      1  0.5795470000000  0.4559490000000  0.4985980000000 1.0
C      1  0.4572240000000  0.5036710000000  0.5773980000000 1.0
C      1  0.4974020000000  0.4233000000000  0.5465890000000 1.0
C      1  0.4967050000000  0.5756760000000  0.5435040000000 1.0
C      1  0.4985390000000  0.4191860000000  0.4626810000000 1.0
C      1  0.5788840000000  0.5390530000000  0.5011750000000 1.0
C      1  0.4206920000000  0.4608040000000  0.5020910000000 1.0
C      1  0.4230830000000  0.5441250000000  0.5025230000000 1.0
C      1  0.4588130000000  0.5022080000000  0.4199890000000 1.0
C      1  0.5431710000000  0.5004090000000  0.4212870000000 1.0
C      1  0.5415890000000  0.4979370000000  0.5789600000000 1.0
C      1  0.5007350000000  0.4591110000000  0.5776220000000 1.0
C      1  0.5794800000000  0.4988390000000  0.4572800000000 1.0
C      1  0.4535340000000  0.5760200000000  0.5015390000000 1.0
C      1  0.5018120000000  0.5424280000000  0.4225740000000 1.0
C      1  0.4980790000000  0.5428250000000  0.5764890000000 1.0
C      1  0.5009220000000  0.4595010000000  0.4216810000000 1.0
C      1  0.5771410000000  0.4988020000000  0.5452770000000 1.0
C      1  0.4213190000000  0.5009390000000  0.4594980000000 1.0
C      1  0.4247850000000  0.5027450000000  0.5444890000000 1.0
C      1  0.4559890000000  0.4229150000000  0.5027920000000 1.0
C      1  0.5449310000000  0.4234400000000  0.5011930000000 1.0
C      1  0.5387360000000  0.5803350000000  0.5004390000000 1.0
C      1  0.4672330000000  0.4215030000000  0.5237420000000 1.0
C      1  0.4195450000000  0.5214980000000  0.4716090000000 1.0
C      1  0.5211770000000  0.4706110000000  0.4185110000000 1.0
C      1  0.4659950000000  0.5807160000000  0.4816050000000 1.0
C      1  0.5297280000000  0.4193930000000  0.4836620000000 1.0
C      1  0.5274240000000  0.5799960000000  0.5210800000000 1.0
C      1  0.4206840000000  0.4825530000000  0.5325380000000 1.0
C      1  0.5808350000000  0.5172470000000  0.5315360000000 1.0
C      1  0.5810470000000  0.4782920000000  0.4684670000000 1.0
C      1  0.5162020000000  0.5267590000000  0.5802030000000 1.0
C      1  0.4829940000000  0.4746840000000  0.5802800000000 1.0
C      1  0.4810520000000  0.5322930000000  0.4205850000000 1.0
C      1  0.4706630000000  0.5226570000000  0.4194020000000 1.0
C      1  0.4197620000000  0.4726090000000  0.5224530000000 1.0
C      1  0.5190750000000  0.4188500000000  0.4740700000000 1.0
C      1  0.4729600000000  0.4849430000000  0.5801590000000 1.0
C      1  0.5315700000000  0.4801590000000  0.4186150000000 1.0
C      1  0.5261020000000  0.5162790000000  0.5805210000000 1.0
C      1  0.4200130000000  0.5313970000000  0.4819230000000 1.0
C      1  0.5815570000000  0.5268740000000  0.5211070000000 1.0
C      1  0.5807860000000  0.4684220000000  0.4785070000000 1.0
C      1  0.5170560000000  0.5792620000000  0.5309850000000 1.0
C      1  0.4765720000000  0.5814840000000  0.4721420000000 1.0
C      1  0.4772190000000  0.4217520000000  0.5338500000000 1.0
C      1  0.5130030000000  0.4323340000000  0.5072960000000 1.0
C      1  0.4362970000000  0.5075490000000  0.5188940000000 1.0
C      1  0.5066440000000  0.5168780000000  0.4340790000000 1.0
C      1  0.5147490000000  0.5657180000000  0.4955270000000 1.0
C      1  0.4814230000000  0.4338620000000  0.4969280000000 1.0
C      1  0.4799400000000  0.5670750000000  0.5042260000000 1.0
C      1  0.4345270000000  0.4947470000000  0.4834270000000 1.0
C      1  0.5662040000000  0.5039220000000  0.4814770000000 1.0
C      1  0.5657330000000  0.4929160000000  0.5178840000000 1.0
C      1  0.5073840000000  0.4811370000000  0.5630360000000 1.0
C      1  0.4932390000000  0.5190860000000  0.5628870000000 1.0
C      1  0.4940000000000  0.4851770000000  0.4330650000000 1.0
C      1  0.5176910000000  0.5052420000000  0.4338910000000 1.0
C      1  0.4361590000000  0.5185620000000  0.5069710000000 1.0
C      1  0.5035110000000  0.4340140000000  0.5192740000000 1.0
C      1  0.5186030000000  0.4925740000000  0.5629410000000 1.0
C      1  0.4831170000000  0.4963720000000  0.4337500000000 1.0
C      1  0.4821450000000  0.5077100000000  0.5629130000000 1.0
C      1  0.4347830000000  0.4838060000000  0.4948000000000 1.0
C      1  0.5660050000000  0.4815230000000  0.5051550000000 1.0
C      1  0.5667880000000  0.5142590000000  0.4931480000000 1.0
C      1  0.5039980000000  0.5669860000000  0.4839840000000 1.0
C      1  0.4924220000000  0.5700230000000  0.5116770000000 1.0
C      1  0.4929540000000  0.4336220000000  0.4862790000000 1.0
C      1  0.5055970000000  0.5150340000000  0.5560800000000 1.0
C      1  0.5128010000000  0.5563610000000  0.5072520000000 1.0
C      1  0.5578360000000  0.5051210000000  0.5152950000000 1.0
C      1  0.5053480000000  0.4842110000000  0.4422150000000 1.0
C      1  0.4949180000000  0.5166350000000  0.4429690000000 1.0
C      1  0.4953330000000  0.4851300000000  0.5561350000000 1.0
C      1  0.5142560000000  0.4420400000000  0.4961130000000 1.0
C      1  0.4829750000000  0.5578840000000  0.4933410000000 1.0
C      1  0.4831120000000  0.4431210000000  0.5073510000000 1.0
C      1  0.5577700000000  0.4928300000000  0.4831510000000 1.0
C      1  0.4432310000000  0.5060950000000  0.4848290000000 1.0
C      1  0.4437840000000  0.4953850000000  0.5160140000000 1.0
C      1  0.5017860000000  0.5591290000000  0.5153730000000 1.0
C      1  0.5154040000000  0.5050490000000  0.5563130000000 1.0
C      1  0.5578080000000  0.5143350000000  0.5047400000000 1.0
C      1  0.5046740000000  0.4426040000000  0.4861870000000 1.0
C      1  0.4926260000000  0.4431420000000  0.5172270000000 1.0
C      1  0.4933330000000  0.5578830000000  0.4842740000000 1.0
C      1  0.5155590000000  0.4936210000000  0.4422700000000 1.0
C      1  0.4856480000000  0.4952290000000  0.5561600000000 1.0
C      1  0.4847350000000  0.5073690000000  0.4425630000000 1.0
C      1  0.5576460000000  0.4833940000000  0.4932360000000 1.0
C      1  0.4434340000000  0.4858800000000  0.5058620000000 1.0
C      1  0.4436890000000  0.5159370000000  0.4945530000000 1.0
C      1  0.5223030000000  0.4608920000000  0.4290370000000 1.0
C      1  0.4584110000000  0.4329880000000  0.5230430000000 1.0
C      1  0.4300870000000  0.5215500000000  0.4615250000000 1.0
C      1  0.5193400000000  0.5370900000000  0.5702250000000 1.0
C      1  0.4803150000000  0.4641040000000  0.5702410000000 1.0
C      1  0.4812830000000  0.5409250000000  0.4324340000000 1.0
C      1  0.4580060000000  0.5689050000000  0.4797960000000 1.0
C      1  0.5395570000000  0.4294630000000  0.4800050000000 1.0
C      1  0.5381900000000  0.5698170000000  0.5203880000000 1.0
C      1  0.4321700000000  0.4811460000000  0.5410780000000 1.0
C      1  0.5696800000000  0.5198330000000  0.5405980000000 1.0
C      1  0.5699110000000  0.4782630000000  0.4591480000000 1.0
C      1  0.5186910000000  0.4293360000000  0.4634910000000 1.0
C      1  0.4607340000000  0.5225180000000  0.4299640000000 1.0
C      1  0.4304430000000  0.4626430000000  0.5222510000000 1.0
C      1  0.5188730000000  0.5684100000000  0.5398610000000 1.0
C      1  0.4767860000000  0.5709290000000  0.4621110000000 1.0
C      1  0.4774240000000  0.4336430000000  0.5418300000000 1.0
C      1  0.4628610000000  0.4828220000000  0.5697450000000 1.0
C      1  0.5408080000000  0.4792680000000  0.4297840000000 1.0
C      1  0.5369390000000  0.5182610000000  0.5705250000000 1.0
C      1  0.4311440000000  0.5402470000000  0.4806980000000 1.0
C      1  0.5714950000000  0.5372850000000  0.5223270000000 1.0
C      1  0.5695470000000  0.4596140000000  0.4780010000000 1.0
C      1  0.5316460000000  0.4942920000000  0.4156180000000 1.0
C      1  0.4911440000000  0.4174640000000  0.5347900000000 1.0
C      1  0.4173630000000  0.5322020000000  0.4964760000000 1.0
C      1  0.5280060000000  0.5019920000000  0.5838670000000 1.0
C      1  0.4706230000000  0.4993540000000  0.5833110000000 1.0
C      1  0.4707230000000  0.5086850000000  0.4150810000000 1.0
C      1  0.4907270000000  0.5852730000000  0.4721010000000 1.0
C      1  0.5052270000000  0.4149140000000  0.4747250000000 1.0
C      1  0.5023080000000  0.5818480000000  0.5317140000000 1.0
C      1  0.4158120000000  0.4728130000000  0.5084710000000 1.0
C      1  0.5841910000000  0.5268500000000  0.5067690000000 1.0
C      1  0.5842200000000  0.4682420000000  0.4927160000000 1.0
C      1  0.5318270000000  0.4177920000000  0.4985120000000 1.0
C      1  0.4948840000000  0.5313440000000  0.4168960000000 1.0
C      1  0.4182720000000  0.4971560000000  0.5331810000000 1.0
C      1  0.5268570000000  0.5844320000000  0.5075020000000 1.0
C      1  0.4638610000000  0.5839440000000  0.4960980000000 1.0
C      1  0.4671360000000  0.4171810000000  0.5098290000000 1.0
C      1  0.4974330000000  0.4722930000000  0.5833540000000 1.0
C      1  0.5068600000000  0.4711870000000  0.4159880000000 1.0
C      1  0.5016740000000  0.5296670000000  0.5826330000000 1.0
C      1  0.4161020000000  0.5074060000000  0.4713020000000 1.0
C      1  0.5832800000000  0.5028280000000  0.5331350000000 1.0
C      1  0.5850990000000  0.4922450000000  0.4686650000000 1.0
C      1  0.5530100000000  0.5604440000000  0.5017430000000 1.0
C      1  0.5536490000000  0.5025050000000  0.5433010000000 1.0
C      1  0.5034490000000  0.5419070000000  0.5531840000000 1.0
C      1  0.5448130000000  0.4464550000000  0.4966570000000 1.0
C      1  0.4572850000000  0.5531690000000  0.4971120000000 1.0
C      1  0.4559540000000  0.4466730000000  0.5033200000000 1.0
C      1  0.5554240000000  0.4970990000000  0.4559820000000 1.0
C      1  0.4449410000000  0.5027610000000  0.4562520000000 1.0
C      1  0.4479060000000  0.4990390000000  0.5425810000000 1.0
C      1  0.5089630000000  0.4501550000000  0.4436540000000 1.0
C      1  0.5008770000000  0.5544840000000  0.4437780000000 1.0
C      1  0.4973290000000  0.4581450000000  0.5537280000000 1.0
C      1  0.5424380000000  0.5019740000000  0.5540140000000 1.0
C      1  0.5572870000000  0.5488430000000  0.5090540000000 1.0
C      1  0.5036910000000  0.5518370000000  0.5412570000000 1.0
C      1  0.5435220000000  0.4976330000000  0.4450130000000 1.0
C      1  0.4590690000000  0.4991810000000  0.5531290000000 1.0
C      1  0.4560910000000  0.5035250000000  0.4440100000000 1.0
C      1  0.5551020000000  0.4577260000000  0.4960510000000 1.0
C      1  0.4444990000000  0.4580670000000  0.5028950000000 1.0
C      1  0.4468440000000  0.5419620000000  0.4977880000000 1.0
C      1  0.5008720000000  0.4391120000000  0.4479880000000 1.0
C      1  0.4966870000000  0.4474690000000  0.5428430000000 1.0
C      1  0.4956640000000  0.5573560000000  0.4574680000000 1.0
C      1  0.4674640000000  0.4992450000000  0.4773720000000 1.0
C      1  0.4996830000000  0.4774140000000  0.4655970000000 1.0
C      1  0.4783290000000  0.4670490000000  0.4984910000000 1.0
C      1  0.4689240000000  0.4999970000000  0.5198100000000 1.0
C      1  0.5337060000000  0.4999560000000  0.5203910000000 1.0
C      1  0.5336550000000  0.5006110000000  0.4764830000000 1.0
C      1  0.5017060000000  0.5200830000000  0.5307940000000 1.0
C      1  0.5009950000000  0.4785360000000  0.5313230000000 1.0
C      1  0.5010230000000  0.5226240000000  0.4662670000000 1.0
C      1  0.4805070000000  0.5319250000000  0.4979530000000 1.0
C      1  0.5218020000000  0.4669010000000  0.4992330000000 1.0
C      1  0.5229300000000  0.5329700000000  0.4986250000000 1.0
C      1  0.4671990000000  0.4781800000000  0.4984220000000 1.0
C      1  0.4996640000000  0.4666150000000  0.4772100000000 1.0
C      1  0.4782530000000  0.4994020000000  0.4659050000000 1.0
C      1  0.4691900000000  0.5207760000000  0.4983100000000 1.0
C      1  0.5345450000000  0.5222190000000  0.4984810000000 1.0
C      1  0.5327590000000  0.4784610000000  0.4985970000000 1.0
C      1  0.5031540000000  0.5308840000000  0.5195180000000 1.0
C      1  0.5013020000000  0.5335880000000  0.4776190000000 1.0
C      1  0.5002850000000  0.4675360000000  0.5199540000000 1.0
C      1  0.4804490000000  0.4999930000000  0.5306650000000 1.0
C      1  0.5223720000000  0.5007340000000  0.4654730000000 1.0
C      1  0.5219190000000  0.4996590000000  0.5310790000000 1.0
C      1  0.5112070000000  0.4781420000000  0.4983410000000 1.0
C      1  0.4794860000000  0.4992760000000  0.5088300000000 1.0
C      1  0.5007930000000  0.5108550000000  0.4762740000000 1.0
C      1  0.5127420000000  0.5215270000000  0.4980580000000 1.0
C      1  0.4894450000000  0.4778500000000  0.4982630000000 1.0
C      1  0.4910530000000  0.5209610000000  0.4978370000000 1.0
C      1  0.4791170000000  0.4994780000000  0.4873020000000 1.0
C      1  0.5227200000000  0.5001490000000  0.4872430000000 1.0
C      1  0.5232000000000  0.4999980000000  0.5090070000000 1.0
C      1  0.5011410000000  0.4886940000000  0.5198600000000 1.0
C      1  0.5016210000000  0.5099160000000  0.5194470000000 1.0
C      1  0.5006880000000  0.4887740000000  0.4761760000000 1.0
C      1  0.5115780000000  0.4999800000000  0.4762910000000 1.0
C      1  0.4798910000000  0.5101040000000  0.4979290000000 1.0
C      1  0.5003240000000  0.4780300000000  0.5090160000000 1.0
C      1  0.5121340000000  0.4995460000000  0.5196400000000 1.0
C      1  0.4898190000000  0.4997550000000  0.4761900000000 1.0
C      1  0.4905990000000  0.4992150000000  0.5195540000000 1.0
C      1  0.4786860000000  0.4886120000000  0.4981570000000 1.0
C      1  0.5222960000000  0.4892600000000  0.4980510000000 1.0
C      1  0.5237050000000  0.5109540000000  0.4982720000000 1.0
C      1  0.5015490000000  0.5216120000000  0.4872620000000 1.0
C      1  0.5021390000000  0.5206240000000  0.5085910000000 1.0
C      1  0.5004340000000  0.4779260000000  0.4874050000000 1.0
C      1  0.5391280000000  0.5451430000000  0.4437790000000 1.0
C      1  0.5397220000000  0.4605660000000  0.5613960000000 1.0
C      1  0.5393480000000  0.4379660000000  0.5403650000000 1.0
C      1  0.4533260000000  0.5535000000000  0.5339990000000 1.0
C      1  0.4624170000000  0.5476770000000  0.5575100000000 1.0
C      1  0.5418680000000  0.5593190000000  0.4629100000000 1.0
C      1  0.5625350000000  0.4596910000000  0.5388380000000 1.0
C      1  0.4618840000000  0.4418490000000  0.4576100000000 1.0
C      1  0.5569000000000  0.5420810000000  0.4587950000000 1.0
C      1  0.4589330000000  0.4595380000000  0.4438250000000 1.0
C      1  0.4405850000000  0.4534840000000  0.4574590000000 1.0
C      1  0.4398860000000  0.5388640000000  0.5490480000000 1.0
C      1  0.4660530000000  0.5372380000000  0.5347000000000 1.0
C      1  0.5481910000000  0.5514750000000  0.4529540000000 1.0
C      1  0.5403380000000  0.4595460000000  0.5391680000000 1.0
C      1  0.4520900000000  0.4491810000000  0.4500950000000 1.0
END
