TITL C-3151192-8964-200 3.48121950281163 1000000 -3641.73108153485 0 0 520 (C1) n - 1
REM
REM in /scratch/bkarasulu/Only-C240/Try4-Only-SYMOP24
REM
REM
REM
REM
REM
REM ./C.cell (018bbde761a0794ceee8127bb1f748ef)
REM
REM compiler GCC version 9.2.1 20190827 (Red Hat 9.2.1-1)
REM options -cpp -mtune=generic -march=x86-64 -g -O0 -fpre-include=/usr/include/finclude/math-vector-fortran.h
REM seed -72135717 -1494414794 -1269949475 -1397328484 1021453175 -1585237348 928208448 -1929483819 -984504397 -596763392 1791956579 -949324547 522518507 -1899583185 1112533937 1960125126 -1505402311 -1678958013 581853440 1583653874 -1685030466 1658281370 1133400208 -1634012385 2024169933 997909969 -364732874 1676859798 631414173 -204371010 -1396962167 421649905 -1393830247
REM
CELL 1.54180  100.00000  100.00000  100.00000   90.00000   90.00000   90.00000
LATT -1
SFAC C  
C      1  0.4629430000000  0.5002680000000  0.4748590000000 1.0
C      1  0.5002150000000  0.4752010000000  0.4647480000000 1.0
C      1  0.4757230000000  0.4636110000000  0.5002260000000 1.0
C      1  0.4641670000000  0.4996980000000  0.5242670000000 1.0
C      1  0.5362580000000  0.5004720000000  0.5245000000000 1.0
C      1  0.5358860000000  0.4994670000000  0.4758980000000 1.0
C      1  0.5007880000000  0.5239740000000  0.5358700000000 1.0
C      1  0.4996470000000  0.4751960000000  0.5359650000000 1.0
C      1  0.4990190000000  0.5246800000000  0.4638270000000 1.0
C      1  0.4752740000000  0.5360290000000  0.4992820000000 1.0
C      1  0.5248690000000  0.4639060000000  0.4999690000000 1.0
C      1  0.5243570000000  0.5357080000000  0.5003180000000 1.0
C      1  0.4645480000000  0.4752250000000  0.4997610000000 1.0
C      1  0.5006440000000  0.4635440000000  0.4756710000000 1.0
C      1  0.4742330000000  0.5006400000000  0.4634970000000 1.0
C      1  0.4638230000000  0.5248060000000  0.4992930000000 1.0
C      1  0.5357520000000  0.5246030000000  0.5003940000000 1.0
C      1  0.5361120000000  0.4752660000000  0.5000040000000 1.0
C      1  0.5010030000000  0.5343430000000  0.5239500000000 1.0
C      1  0.4992430000000  0.5360670000000  0.4750300000000 1.0
C      1  0.4997750000000  0.4637680000000  0.5247850000000 1.0
C      1  0.4753140000000  0.4996130000000  0.5356990000000 1.0
C      1  0.5236420000000  0.4992260000000  0.4656800000000 1.0
C      1  0.5242180000000  0.5006810000000  0.5346750000000 1.0
C      1  0.4393350000000  0.5031520000000  0.4787530000000 1.0
C      1  0.5025820000000  0.4806660000000  0.4405320000000 1.0
C      1  0.4798840000000  0.4393450000000  0.5026880000000 1.0
C      1  0.4399220000000  0.4975720000000  0.5198620000000 1.0
C      1  0.5602090000000  0.5029160000000  0.5203200000000 1.0
C      1  0.5600360000000  0.4972150000000  0.4799960000000 1.0
C      1  0.5033490000000  0.5196120000000  0.5600090000000 1.0
C      1  0.4969500000000  0.4790800000000  0.5603830000000 1.0
C      1  0.4966080000000  0.5210390000000  0.4394510000000 1.0
C      1  0.4791190000000  0.5605330000000  0.4967930000000 1.0
C      1  0.5204150000000  0.4396340000000  0.4975660000000 1.0
C      1  0.5196960000000  0.5600140000000  0.5028420000000 1.0
C      1  0.4401920000000  0.4801360000000  0.5022490000000 1.0
C      1  0.5031210000000  0.4394390000000  0.4796540000000 1.0
C      1  0.4794230000000  0.5033410000000  0.4395020000000 1.0
C      1  0.4395770000000  0.5204110000000  0.4971640000000 1.0
C      1  0.5599860000000  0.5201840000000  0.5026410000000 1.0
C      1  0.5602360000000  0.4799330000000  0.4976340000000 1.0
C      1  0.5016770000000  0.5596220000000  0.5211470000000 1.0
C      1  0.4971020000000  0.5603710000000  0.4799680000000 1.0
C      1  0.4975530000000  0.4394700000000  0.5201050000000 1.0
C      1  0.4803200000000  0.4972070000000  0.5599430000000 1.0
C      1  0.5209480000000  0.4984660000000  0.4404590000000 1.0
C      1  0.5214600000000  0.5014240000000  0.5598550000000 1.0
C      1  0.4402220000000  0.5418610000000  0.5254700000000 1.0
C      1  0.5461540000000  0.5256290000000  0.4336030000000 1.0
C      1  0.5256330000000  0.4399250000000  0.5419590000000 1.0
C      1  0.4409970000000  0.4631590000000  0.4713020000000 1.0
C      1  0.5602560000000  0.5383880000000  0.4722290000000 1.0
C      1  0.5607270000000  0.4616430000000  0.5280690000000 1.0
C      1  0.5465390000000  0.4742870000000  0.5667750000000 1.0
C      1  0.4619870000000  0.5277010000000  0.5603520000000 1.0
C      1  0.4614970000000  0.4728870000000  0.4391710000000 1.0
C      1  0.5253420000000  0.5599860000000  0.4583720000000 1.0
C      1  0.4753090000000  0.4389540000000  0.4582170000000 1.0
C      1  0.4747060000000  0.5663370000000  0.5464060000000 1.0
C      1  0.4405840000000  0.5255850000000  0.5416020000000 1.0
C      1  0.5418910000000  0.4402330000000  0.5258740000000 1.0
C      1  0.5253110000000  0.5411880000000  0.4398870000000 1.0
C      1  0.4376270000000  0.4735010000000  0.4602670000000 1.0
C      1  0.5605990000000  0.4726420000000  0.5391360000000 1.0
C      1  0.5601590000000  0.5274020000000  0.4611400000000 1.0
C      1  0.5412960000000  0.5596310000000  0.4744990000000 1.0
C      1  0.4590520000000  0.5601800000000  0.5255440000000 1.0
C      1  0.4582310000000  0.4396320000000  0.4748310000000 1.0
C      1  0.5255540000000  0.4587430000000  0.5603270000000 1.0
C      1  0.4726300000000  0.4619280000000  0.4405380000000 1.0
C      1  0.4730380000000  0.5387330000000  0.5602460000000 1.0
C      1  0.5000700000000  0.5112810000000  0.4283280000000 1.0
C      1  0.5107140000000  0.4284030000000  0.4997640000000 1.0
C      1  0.4285370000000  0.5001350000000  0.5103790000000 1.0
C      1  0.5004000000000  0.4887650000000  0.5716370000000 1.0
C      1  0.5011640000000  0.5098570000000  0.5711100000000 1.0
C      1  0.5006370000000  0.4902150000000  0.4291160000000 1.0
C      1  0.5099450000000  0.5711930000000  0.5008890000000 1.0
C      1  0.4894060000000  0.4281090000000  0.4998920000000 1.0
C      1  0.4888340000000  0.5717590000000  0.5002970000000 1.0
C      1  0.4284660000000  0.5003630000000  0.4889340000000 1.0
C      1  0.5712670000000  0.4998960000000  0.4895410000000 1.0
C      1  0.5713600000000  0.5003250000000  0.5107050000000 1.0
C      1  0.4999730000000  0.4282740000000  0.5103960000000 1.0
C      1  0.5111680000000  0.5006000000000  0.4286820000000 1.0
C      1  0.4284740000000  0.5107920000000  0.4996310000000 1.0
C      1  0.4995000000000  0.5714630000000  0.4899300000000 1.0
C      1  0.4995550000000  0.5714270000000  0.5114260000000 1.0
C      1  0.5002210000000  0.4281750000000  0.4891150000000 1.0
C      1  0.5116110000000  0.4993700000000  0.5714880000000 1.0
C      1  0.4895780000000  0.5005650000000  0.4286500000000 1.0
C      1  0.4900990000000  0.4995420000000  0.5711610000000 1.0
C      1  0.4287390000000  0.4897320000000  0.4998980000000 1.0
C      1  0.5714050000000  0.4895160000000  0.5001310000000 1.0
C      1  0.5712420000000  0.5107120000000  0.5001070000000 1.0
C      1  0.4775230000000  0.4533450000000  0.5117060000000 1.0
C      1  0.4529320000000  0.5119640000000  0.4769280000000 1.0
C      1  0.5117240000000  0.4775510000000  0.4540930000000 1.0
C      1  0.4769070000000  0.5465320000000  0.4879460000000 1.0
C      1  0.5230650000000  0.4534910000000  0.4885850000000 1.0
C      1  0.5223520000000  0.5463020000000  0.5117760000000 1.0
C      1  0.4538200000000  0.4883250000000  0.5222520000000 1.0
C      1  0.5465480000000  0.5117820000000  0.5226980000000 1.0
C      1  0.5464100000000  0.4882560000000  0.4776370000000 1.0
C      1  0.5121000000000  0.5220620000000  0.5464800000000 1.0
C      1  0.4882010000000  0.4770440000000  0.5462740000000 1.0
C      1  0.4876910000000  0.5231440000000  0.4534100000000 1.0
C      1  0.4766980000000  0.5123030000000  0.4532830000000 1.0
C      1  0.4540060000000  0.4773320000000  0.5111240000000 1.0
C      1  0.5122200000000  0.4534750000000  0.4775300000000 1.0
C      1  0.4773570000000  0.4881990000000  0.5461330000000 1.0
C      1  0.5227820000000  0.4886860000000  0.4540310000000 1.0
C      1  0.5232100000000  0.5111210000000  0.5464340000000 1.0
C      1  0.4532620000000  0.5229130000000  0.4880280000000 1.0
C      1  0.5462970000000  0.5227130000000  0.5117210000000 1.0
C      1  0.5465180000000  0.4772990000000  0.4885920000000 1.0
C      1  0.5113960000000  0.5461130000000  0.5229700000000 1.0
C      1  0.4879570000000  0.5465800000000  0.4770480000000 1.0
C      1  0.4884580000000  0.4533220000000  0.5227110000000 1.0
C      1  0.5195100000000  0.4882210000000  0.5545790000000 1.0
C      1  0.4885180000000  0.5542880000000  0.5191430000000 1.0
C      1  0.5581980000000  0.5221370000000  0.4883460000000 1.0
C      1  0.5190280000000  0.5116890000000  0.4456700000000 1.0
C      1  0.4771080000000  0.4891070000000  0.4412360000000 1.0
C      1  0.4782630000000  0.5115130000000  0.5581280000000 1.0
C      1  0.4887780000000  0.4402350000000  0.4775660000000 1.0
C      1  0.5114170000000  0.5585670000000  0.4776010000000 1.0
C      1  0.5118710000000  0.4411900000000  0.5226310000000 1.0
C      1  0.5585180000000  0.4779340000000  0.5119360000000 1.0
C      1  0.4413610000000  0.5226970000000  0.5115270000000 1.0
C      1  0.4421170000000  0.4778920000000  0.4879100000000 1.0
C      1  0.5220420000000  0.5583520000000  0.4884550000000 1.0
C      1  0.4890830000000  0.5222220000000  0.5580640000000 1.0
C      1  0.5584380000000  0.4886950000000  0.5227440000000 1.0
C      1  0.5226780000000  0.4413010000000  0.5119080000000 1.0
C      1  0.4778200000000  0.4405090000000  0.4883640000000 1.0
C      1  0.4772700000000  0.5586870000000  0.5109020000000 1.0
C      1  0.4881320000000  0.4780950000000  0.4425240000000 1.0
C      1  0.5110600000000  0.4770610000000  0.5587540000000 1.0
C      1  0.5107280000000  0.5229250000000  0.4412890000000 1.0
C      1  0.5580800000000  0.5113970000000  0.4775510000000 1.0
C      1  0.4415540000000  0.5118550000000  0.5222500000000 1.0
C      1  0.4405530000000  0.4887200000000  0.4775080000000 1.0
C      1  0.5932680000000  0.5184790000000  0.5090700000000 1.0
C      1  0.5186400000000  0.5091880000000  0.5937540000000 1.0
C      1  0.5095300000000  0.5935530000000  0.5185860000000 1.0
C      1  0.5934360000000  0.4819970000000  0.4910570000000 1.0
C      1  0.4061230000000  0.5184960000000  0.4914950000000 1.0
C      1  0.4069880000000  0.4817220000000  0.5093720000000 1.0
C      1  0.5185700000000  0.4904820000000  0.4066190000000 1.0
C      1  0.4825450000000  0.5089530000000  0.4059990000000 1.0
C      1  0.4821510000000  0.4910270000000  0.5933700000000 1.0
C      1  0.5098020000000  0.4063240000000  0.4819700000000 1.0
C      1  0.4911100000000  0.5937070000000  0.4823120000000 1.0
C      1  0.4912000000000  0.4062690000000  0.5180640000000 1.0
C      1  0.5933950000000  0.5094700000000  0.5181700000000 1.0
C      1  0.5183320000000  0.5932580000000  0.5093390000000 1.0
C      1  0.5094750000000  0.5180680000000  0.5934030000000 1.0
C      1  0.5933740000000  0.4909940000000  0.4819490000000 1.0
C      1  0.4069070000000  0.4907800000000  0.5184020000000 1.0
C      1  0.4059720000000  0.5094110000000  0.4824680000000 1.0
C      1  0.5187520000000  0.4064620000000  0.4911370000000 1.0
C      1  0.4820950000000  0.4062770000000  0.5090470000000 1.0
C      1  0.4820550000000  0.5937290000000  0.4913750000000 1.0
C      1  0.5094230000000  0.4815990000000  0.4070270000000 1.0
C      1  0.4911690000000  0.4819290000000  0.5935360000000 1.0
C      1  0.4915350000000  0.5180790000000  0.4061610000000 1.0
C      1  0.5312550000000  0.4292860000000  0.4928120000000 1.0
C      1  0.4295460000000  0.4926700000000  0.5305650000000 1.0
C      1  0.4920850000000  0.5314300000000  0.4288090000000 1.0
C      1  0.5303800000000  0.5704890000000  0.5075460000000 1.0
C      1  0.4691740000000  0.4289890000000  0.5075490000000 1.0
C      1  0.4686950000000  0.5711770000000  0.4922800000000 1.0
C      1  0.4280220000000  0.5076740000000  0.4683760000000 1.0
C      1  0.5708670000000  0.4926610000000  0.4694420000000 1.0
C      1  0.5709730000000  0.5075910000000  0.5308080000000 1.0
C      1  0.4922190000000  0.4687370000000  0.5709750000000 1.0
C      1  0.5079120000000  0.5301670000000  0.5707220000000 1.0
C      1  0.5073640000000  0.4698830000000  0.4299300000000 1.0
C      1  0.5317760000000  0.4933090000000  0.4291230000000 1.0
C      1  0.4289320000000  0.5310020000000  0.4924210000000 1.0
C      1  0.4926470000000  0.4289520000000  0.5307670000000 1.0
C      1  0.5322260000000  0.5066390000000  0.5713020000000 1.0
C      1  0.4691860000000  0.5076040000000  0.4283650000000 1.0
C      1  0.4694820000000  0.4928070000000  0.5705470000000 1.0
C      1  0.4296350000000  0.4693200000000  0.5067870000000 1.0
C      1  0.5709730000000  0.4692170000000  0.4931590000000 1.0
C      1  0.5706320000000  0.5310350000000  0.5070680000000 1.0
C      1  0.4924260000000  0.5710720000000  0.4694080000000 1.0
C      1  0.5069420000000  0.5709680000000  0.5319950000000 1.0
C      1  0.5082170000000  0.4290660000000  0.4690780000000 1.0
C      1  0.5379870000000  0.5473840000000  0.5578310000000 1.0
C      1  0.5475370000000  0.5575910000000  0.5379490000000 1.0
C      1  0.5579700000000  0.5378640000000  0.5478630000000 1.0
C      1  0.5381440000000  0.4527600000000  0.4424310000000 1.0
C      1  0.4616570000000  0.5483530000000  0.4418840000000 1.0
C      1  0.4618910000000  0.4520440000000  0.5576480000000 1.0
C      1  0.5483700000000  0.4424580000000  0.4622160000000 1.0
C      1  0.4516810000000  0.5579630000000  0.4618770000000 1.0
C      1  0.4520160000000  0.4421590000000  0.5376860000000 1.0
C      1  0.5580780000000  0.4624800000000  0.4523050000000 1.0
C      1  0.4416840000000  0.5380650000000  0.4516160000000 1.0
C      1  0.4422360000000  0.4621830000000  0.5475110000000 1.0
C      1  0.5375620000000  0.5573380000000  0.5480100000000 1.0
C      1  0.5481290000000  0.5374610000000  0.5577760000000 1.0
C      1  0.5576530000000  0.5479180000000  0.5378130000000 1.0
C      1  0.5383460000000  0.4426760000000  0.4521560000000 1.0
C      1  0.4619610000000  0.4420920000000  0.5478150000000 1.0
C      1  0.4617290000000  0.5581490000000  0.4518670000000 1.0
C      1  0.5481160000000  0.4628140000000  0.4424980000000 1.0
C      1  0.4519810000000  0.4622090000000  0.5575480000000 1.0
C      1  0.4515860000000  0.5382970000000  0.4416570000000 1.0
C      1  0.5582220000000  0.4523600000000  0.4623000000000 1.0
C      1  0.4422690000000  0.4521700000000  0.5374480000000 1.0
C      1  0.4418220000000  0.5480160000000  0.4617730000000 1.0
C      1  0.5137030000000  0.5823140000000  0.4717870000000 1.0
C      1  0.5823270000000  0.4721030000000  0.5142910000000 1.0
C      1  0.4723640000000  0.5139190000000  0.5819150000000 1.0
C      1  0.5136810000000  0.4174340000000  0.5290110000000 1.0
C      1  0.4871900000000  0.5846840000000  0.5310340000000 1.0
C      1  0.4875530000000  0.4167710000000  0.4704610000000 1.0
C      1  0.5819560000000  0.5282320000000  0.4859110000000 1.0
C      1  0.4182320000000  0.4720940000000  0.4859550000000 1.0
C      1  0.4176790000000  0.5291190000000  0.5136560000000 1.0
C      1  0.4722520000000  0.4862880000000  0.4173110000000 1.0
C      1  0.5307760000000  0.5130160000000  0.4153380000000 1.0
C      1  0.5310110000000  0.4868220000000  0.5849400000000 1.0
C      1  0.5132330000000  0.4705970000000  0.5826940000000 1.0
C      1  0.5818830000000  0.5138860000000  0.4717700000000 1.0
C      1  0.4708300000000  0.5826550000000  0.5133980000000 1.0
C      1  0.5132190000000  0.5293660000000  0.4174110000000 1.0
C      1  0.4867820000000  0.5279420000000  0.5818130000000 1.0
C      1  0.4863870000000  0.4722020000000  0.4185420000000 1.0
C      1  0.5822180000000  0.4864650000000  0.5284250000000 1.0
C      1  0.4161800000000  0.4865080000000  0.4722570000000 1.0
C      1  0.4178920000000  0.5135780000000  0.5291200000000 1.0
C      1  0.4708560000000  0.4171200000000  0.4867450000000 1.0
C      1  0.5293110000000  0.4176270000000  0.5136750000000 1.0
C      1  0.5282950000000  0.5820260000000  0.4865430000000 1.0
C      1  0.5090220000000  0.5310570000000  0.4532300000000 1.0
C      1  0.5304500000000  0.4535290000000  0.5102060000000 1.0
C      1  0.4538110000000  0.5099640000000  0.5299380000000 1.0
C      1  0.5094490000000  0.4689090000000  0.5467790000000 1.0
C      1  0.4908740000000  0.5303260000000  0.5460440000000 1.0
C      1  0.4898710000000  0.4696720000000  0.4545690000000 1.0
C      1  0.5298990000000  0.5462000000000  0.4901160000000 1.0
C      1  0.4701980000000  0.4527810000000  0.4904740000000 1.0
C      1  0.4690480000000  0.5467570000000  0.5092390000000 1.0
C      1  0.4527650000000  0.4898430000000  0.4707500000000 1.0
C      1  0.5460300000000  0.5094130000000  0.4695170000000 1.0
C      1  0.5464130000000  0.4905560000000  0.5307890000000 1.0
C      1  0.5099830000000  0.4533470000000  0.5306130000000 1.0
C      1  0.5243480000000  0.5121110000000  0.4584900000000 1.0
C      1  0.4535240000000  0.5306270000000  0.5096290000000 1.0
C      1  0.5095460000000  0.5465310000000  0.4694370000000 1.0
C      1  0.4880430000000  0.5414560000000  0.5244200000000 1.0
C      1  0.4912120000000  0.4523900000000  0.4700620000000 1.0
C      1  0.5248230000000  0.4877680000000  0.5417810000000 1.0
C      1  0.4681730000000  0.4919950000000  0.4523930000000 1.0
C      1  0.4700440000000  0.5098520000000  0.5461330000000 1.0
C      1  0.4546930000000  0.4699920000000  0.4888680000000 1.0
C      1  0.5465380000000  0.4697930000000  0.5101580000000 1.0
C      1  0.5461420000000  0.5301440000000  0.4901520000000 1.0
C      1  0.4541900000000  0.5345150000000  0.4769670000000 1.0
C      1  0.5344280000000  0.4777270000000  0.4551080000000 1.0
C      1  0.4771980000000  0.4544750000000  0.5342180000000 1.0
C      1  0.4549290000000  0.4656860000000  0.5223400000000 1.0
C      1  0.5451480000000  0.5342090000000  0.5228130000000 1.0
C      1  0.5455980000000  0.4658290000000  0.4774510000000 1.0
C      1  0.5345610000000  0.5223220000000  0.5453150000000 1.0
C      1  0.4656910000000  0.4771930000000  0.5450520000000 1.0
C      1  0.4650640000000  0.5231490000000  0.4541760000000 1.0
C      1  0.4767750000000  0.5456380000000  0.4654370000000 1.0
C      1  0.5231740000000  0.4548560000000  0.4659510000000 1.0
C      1  0.5224700000000  0.5448340000000  0.5344560000000 1.0
C      1  0.4548060000000  0.4772070000000  0.5338770000000 1.0
C      1  0.5346560000000  0.4547690000000  0.4774180000000 1.0
C      1  0.4766690000000  0.5346610000000  0.4543260000000 1.0
C      1  0.4540480000000  0.5230070000000  0.4652590000000 1.0
C      1  0.5454890000000  0.5226720000000  0.5342850000000 1.0
C      1  0.5455230000000  0.4774490000000  0.4660230000000 1.0
C      1  0.5339650000000  0.5450900000000  0.5228570000000 1.0
C      1  0.4652850000000  0.5455500000000  0.4769840000000 1.0
C      1  0.4658490000000  0.4545310000000  0.5226200000000 1.0
C      1  0.4771350000000  0.4655780000000  0.5452110000000 1.0
C      1  0.5229210000000  0.4660500000000  0.4550540000000 1.0
C      1  0.5228360000000  0.5337800000000  0.5454480000000 1.0
C      1  0.4779960000000  0.5005990000000  0.4177240000000 1.0
C      1  0.5013470000000  0.4176620000000  0.4770320000000 1.0
C      1  0.4185170000000  0.4775820000000  0.5002830000000 1.0
C      1  0.4779670000000  0.4995790000000  0.5816310000000 1.0
C      1  0.5237610000000  0.5003940000000  0.5826780000000 1.0
C      1  0.5234420000000  0.4994690000000  0.4176470000000 1.0
C      1  0.5007120000000  0.5824600000000  0.5236740000000 1.0
C      1  0.4996620000000  0.4178230000000  0.5227030000000 1.0
C      1  0.4995100000000  0.5820130000000  0.4777880000000 1.0
C      1  0.4178800000000  0.5230010000000  0.4996050000000 1.0
C      1  0.5819840000000  0.4776800000000  0.4999050000000 1.0
C      1  0.5817190000000  0.5226670000000  0.5002910000000 1.0
C      1  0.4772020000000  0.4177070000000  0.5006420000000 1.0
C      1  0.5006550000000  0.4779030000000  0.4187360000000 1.0
C      1  0.4173640000000  0.5008060000000  0.4776900000000 1.0
C      1  0.4768940000000  0.5822160000000  0.4994180000000 1.0
C      1  0.5223620000000  0.5816490000000  0.5007180000000 1.0
C      1  0.5231940000000  0.4180650000000  0.4996300000000 1.0
C      1  0.5009470000000  0.5220680000000  0.5816730000000 1.0
C      1  0.4993180000000  0.5232420000000  0.4178100000000 1.0
C      1  0.4993160000000  0.4768110000000  0.5820980000000 1.0
C      1  0.4183070000000  0.4995960000000  0.5227630000000 1.0
C      1  0.5817630000000  0.4996900000000  0.4776410000000 1.0
C      1  0.5819180000000  0.5006680000000  0.5225580000000 1.0
C      1  0.5449920000000  0.4765080000000  0.5347470000000 1.0
C      1  0.4768480000000  0.5344190000000  0.5446190000000 1.0
C      1  0.5346930000000  0.5453640000000  0.4759450000000 1.0
C      1  0.5445520000000  0.5234410000000  0.4655180000000 1.0
C      1  0.4483410000000  0.4840640000000  0.4576920000000 1.0
C      1  0.4547590000000  0.5241060000000  0.5347990000000 1.0
C      1  0.4765850000000  0.4636700000000  0.4568600000000 1.0
C      1  0.5238220000000  0.5351220000000  0.4539100000000 1.0
C      1  0.5242160000000  0.4647660000000  0.5462750000000 1.0
C      1  0.5351980000000  0.4544640000000  0.5243680000000 1.0
C      1  0.4650280000000  0.5461170000000  0.5240250000000 1.0
C      1  0.4657730000000  0.4526740000000  0.4764860000000 1.0
C      1  0.5447430000000  0.5343550000000  0.4761640000000 1.0
C      1  0.4817860000000  0.5549710000000  0.5427790000000 1.0
C      1  0.5430580000000  0.4813590000000  0.5553670000000 1.0
C      1  0.5451960000000  0.4655530000000  0.5241290000000 1.0
C      1  0.4573040000000  0.4651580000000  0.4746370000000 1.0
C      1  0.4544540000000  0.5353070000000  0.5238580000000 1.0
C      1  0.4771910000000  0.4519160000000  0.4656840000000 1.0
C      1  0.5241430000000  0.4542000000000  0.5354510000000 1.0
C      1  0.5237340000000  0.5456460000000  0.4647690000000 1.0
C      1  0.5426360000000  0.5185210000000  0.4449740000000 1.0
C      1  0.4658660000000  0.5238290000000  0.5447770000000 1.0
C      1  0.4610330000000  0.4795090000000  0.4532820000000 1.0
C      1  0.5105690000000  0.4676600000000  0.5004620000000 1.0
C      1  0.4680180000000  0.5003250000000  0.5099280000000 1.0
C      1  0.4991890000000  0.5101440000000  0.4680560000000 1.0
C      1  0.5104070000000  0.5308630000000  0.4990470000000 1.0
C      1  0.4899590000000  0.4673180000000  0.4998230000000 1.0
C      1  0.4896470000000  0.5316370000000  0.4998000000000 1.0
C      1  0.4671150000000  0.4998450000000  0.4892930000000 1.0
C      1  0.5319890000000  0.5002030000000  0.4900010000000 1.0
C      1  0.5320780000000  0.4996510000000  0.5104890000000 1.0
C      1  0.5000950000000  0.4895500000000  0.5315930000000 1.0
C      1  0.4993700000000  0.5102710000000  0.5307690000000 1.0
C      1  0.4985440000000  0.4893970000000  0.4690540000000 1.0
C      1  0.5090940000000  0.4997980000000  0.4694020000000 1.0
C      1  0.4675020000000  0.5103980000000  0.4997970000000 1.0
C      1  0.5004180000000  0.4675660000000  0.5104780000000 1.0
C      1  0.5099590000000  0.4999470000000  0.5303880000000 1.0
C      1  0.4885640000000  0.4996330000000  0.4677280000000 1.0
C      1  0.4895540000000  0.4999870000000  0.5317410000000 1.0
C      1  0.4678410000000  0.4897430000000  0.4993390000000 1.0
C      1  0.5321320000000  0.4895670000000  0.5005470000000 1.0
C      1  0.5317480000000  0.5103020000000  0.4999640000000 1.0
C      1  0.5000070000000  0.5319620000000  0.4892750000000 1.0
C      1  0.5001390000000  0.5303080000000  0.5096340000000 1.0
C      1  0.5000710000000  0.4673980000000  0.4898760000000 1.0
C      1  0.5421820000000  0.4411690000000  0.4751290000000 1.0
C      1  0.4411350000000  0.4749830000000  0.5412320000000 1.0
C      1  0.4744820000000  0.5420460000000  0.4405910000000 1.0
C      1  0.5411990000000  0.5587140000000  0.5251560000000 1.0
C      1  0.4583300000000  0.4408420000000  0.5249290000000 1.0
C      1  0.4579150000000  0.5592660000000  0.4747430000000 1.0
C      1  0.4403480000000  0.5252010000000  0.4578280000000 1.0
C      1  0.5593310000000  0.4751600000000  0.4586440000000 1.0
C      1  0.5593020000000  0.5251300000000  0.5415950000000 1.0
C      1  0.4747280000000  0.4582390000000  0.5589820000000 1.0
C      1  0.5253230000000  0.5410270000000  0.5591210000000 1.0
C      1  0.5252340000000  0.4589410000000  0.4414300000000 1.0
C      1  0.5418030000000  0.4757760000000  0.4416830000000 1.0
C      1  0.4405400000000  0.5417420000000  0.4746320000000 1.0
C      1  0.4748940000000  0.4408040000000  0.5416720000000 1.0
C      1  0.5420530000000  0.5243720000000  0.5586820000000 1.0
C      1  0.4577530000000  0.5254400000000  0.4401050000000 1.0
C      1  0.4582670000000  0.4750860000000  0.5587440000000 1.0
C      1  0.4412720000000  0.4583330000000  0.5245010000000 1.0
C      1  0.5593120000000  0.4584570000000  0.4752540000000 1.0
C      1  0.5588090000000  0.5417430000000  0.5249090000000 1.0
C      1  0.4746430000000  0.5593810000000  0.4581590000000 1.0
C      1  0.5245260000000  0.5582450000000  0.5418620000000 1.0
C      1  0.5255940000000  0.4411980000000  0.4584130000000 1.0
C      1  0.5476680000000  0.4945130000000  0.5558710000000 1.0
C      1  0.4949520000000  0.5553690000000  0.5473540000000 1.0
C      1  0.5520080000000  0.5426470000000  0.4975340000000 1.0
C      1  0.5472970000000  0.5053860000000  0.4444860000000 1.0
C      1  0.4549080000000  0.5000570000000  0.4450470000000 1.0
C      1  0.4576210000000  0.5024570000000  0.5520760000000 1.0
C      1  0.4985090000000  0.4475360000000  0.4572780000000 1.0
C      1  0.5017630000000  0.5526920000000  0.4572410000000 1.0
C      1  0.5020190000000  0.4473770000000  0.5427680000000 1.0
C      1  0.5525160000000  0.4573470000000  0.5027390000000 1.0
C      1  0.4475020000000  0.5428950000000  0.5018330000000 1.0
C      1  0.4482800000000  0.4574740000000  0.4965150000000 1.0
C      1  0.5423430000000  0.5519550000000  0.4978920000000 1.0
C      1  0.4989550000000  0.5429130000000  0.5520930000000 1.0
C      1  0.5524240000000  0.4985580000000  0.5434460000000 1.0
C      1  0.5429880000000  0.4478970000000  0.5025040000000 1.0
C      1  0.4574990000000  0.4477350000000  0.4978760000000 1.0
C      1  0.4569260000000  0.5524630000000  0.5019140000000 1.0
C      1  0.4978850000000  0.4574470000000  0.4481570000000 1.0
C      1  0.5019810000000  0.4568150000000  0.5523420000000 1.0
C      1  0.5017030000000  0.5432600000000  0.4476330000000 1.0
C      1  0.5521370000000  0.5014450000000  0.4568910000000 1.0
C      1  0.4482340000000  0.5022030000000  0.5424650000000 1.0
C      1  0.4427310000000  0.4958230000000  0.4507930000000 1.0
C      1  0.4298460000000  0.5223490000000  0.4669980000000 1.0
C      1  0.5220850000000  0.4684400000000  0.4313880000000 1.0
C      1  0.4675380000000  0.4304840000000  0.5221550000000 1.0
C      1  0.4309380000000  0.4779820000000  0.5319330000000 1.0
C      1  0.5694870000000  0.5222860000000  0.5322460000000 1.0
C      1  0.5695650000000  0.4780090000000  0.4679670000000 1.0
C      1  0.5225950000000  0.5315540000000  0.5692700000000 1.0
C      1  0.4775460000000  0.4673930000000  0.5693750000000 1.0
C      1  0.4773910000000  0.5329740000000  0.4301280000000 1.0
C      1  0.4670680000000  0.5696960000000  0.4776240000000 1.0
C      1  0.5330590000000  0.4308220000000  0.4781470000000 1.0
C      1  0.5317720000000  0.5688620000000  0.5222510000000 1.0
C      1  0.4310140000000  0.4675680000000  0.5214170000000 1.0
C      1  0.5228260000000  0.4307560000000  0.4675650000000 1.0
C      1  0.4671040000000  0.5224090000000  0.4298600000000 1.0
C      1  0.4302120000000  0.5325530000000  0.4776800000000 1.0
C      1  0.5692180000000  0.5326890000000  0.5217410000000 1.0
C      1  0.5695830000000  0.4676090000000  0.4784570000000 1.0
C      1  0.5214570000000  0.5686470000000  0.5327050000000 1.0
C      1  0.4777390000000  0.5696480000000  0.4674350000000 1.0
C      1  0.4779890000000  0.4304850000000  0.5324970000000 1.0
C      1  0.4674180000000  0.4781500000000  0.5691140000000 1.0
C      1  0.5325170000000  0.4787730000000  0.4313920000000 1.0
C      1  0.5329900000000  0.5211920000000  0.5690910000000 1.0
C      1  0.4857020000000  0.5344210000000  0.5684860000000 1.0
C      1  0.5347890000000  0.5684170000000  0.4851640000000 1.0
C      1  0.5688390000000  0.4853430000000  0.5348530000000 1.0
C      1  0.4851490000000  0.4660420000000  0.4320060000000 1.0
C      1  0.5144400000000  0.5353900000000  0.4311020000000 1.0
C      1  0.5145770000000  0.4645710000000  0.5690080000000 1.0
C      1  0.5354850000000  0.4313620000000  0.5152320000000 1.0
C      1  0.4648440000000  0.5689450000000  0.5146540000000 1.0
C      1  0.4647490000000  0.4307310000000  0.4852960000000 1.0
C      1  0.5684640000000  0.5148470000000  0.4654060000000 1.0
C      1  0.4287210000000  0.4854370000000  0.4651980000000 1.0
C      1  0.4316840000000  0.5150150000000  0.5351430000000 1.0
C      1  0.4858500000000  0.5755800000000  0.5423110000000 1.0
C      1  0.5423960000000  0.4854530000000  0.5759930000000 1.0
C      1  0.5685350000000  0.5344590000000  0.4847880000000 1.0
C      1  0.4860090000000  0.4302920000000  0.4644200000000 1.0
C      1  0.5149830000000  0.4310370000000  0.5353020000000 1.0
C      1  0.5147690000000  0.5688440000000  0.4650980000000 1.0
C      1  0.5420710000000  0.5144390000000  0.4243730000000 1.0
C      1  0.4659550000000  0.5151050000000  0.5685960000000 1.0
C      1  0.4655880000000  0.4852950000000  0.4305040000000 1.0
C      1  0.5689870000000  0.4656940000000  0.5154550000000 1.0
C      1  0.4319450000000  0.4662980000000  0.4844270000000 1.0
C      1  0.4312780000000  0.5353200000000  0.5148230000000 1.0
C      1  0.4592040000000  0.5021380000000  0.5660670000000 1.0
C      1  0.5015330000000  0.5666940000000  0.4589460000000 1.0
C      1  0.5665080000000  0.4589250000000  0.5024530000000 1.0
C      1  0.4585220000000  0.4983850000000  0.4317800000000 1.0
C      1  0.5436130000000  0.5017760000000  0.4311620000000 1.0
C      1  0.5440160000000  0.4981270000000  0.5692270000000 1.0
C      1  0.5017040000000  0.4333820000000  0.5412720000000 1.0
C      1  0.4985100000000  0.5687810000000  0.5438080000000 1.0
C      1  0.4990890000000  0.4334330000000  0.4584650000000 1.0
C      1  0.5660150000000  0.5412400000000  0.4977740000000 1.0
C      1  0.4343460000000  0.4592320000000  0.4972630000000 1.0
C      1  0.4335020000000  0.5414210000000  0.5015370000000 1.0
C      1  0.4583900000000  0.5665600000000  0.5015420000000 1.0
C      1  0.5014220000000  0.4582800000000  0.5664490000000 1.0
C      1  0.5661750000000  0.5016690000000  0.4590350000000 1.0
C      1  0.4586580000000  0.4335760000000  0.4983800000000 1.0
C      1  0.5416150000000  0.4338850000000  0.5020460000000 1.0
C      1  0.5408680000000  0.5659750000000  0.4983870000000 1.0
C      1  0.5012970000000  0.5417930000000  0.4335050000000 1.0
C      1  0.4989080000000  0.5407000000000  0.5661230000000 1.0
C      1  0.4982430000000  0.4594000000000  0.4343120000000 1.0
C      1  0.5664430000000  0.4985200000000  0.5412420000000 1.0
C      1  0.4307220000000  0.4982660000000  0.4575840000000 1.0
C      1  0.4342190000000  0.5017360000000  0.5410860000000 1.0
C      1  0.5581330000000  0.5486980000000  0.4610890000000 1.0
C      1  0.5493830000000  0.4614020000000  0.5608000000000 1.0
C      1  0.4617840000000  0.5604600000000  0.5492910000000 1.0
C      1  0.5585340000000  0.4513310000000  0.5392470000000 1.0
C      1  0.4419190000000  0.5488030000000  0.5381630000000 1.0
C      1  0.4422240000000  0.4519210000000  0.4610120000000 1.0
C      1  0.5490660000000  0.5385490000000  0.4395090000000 1.0
C      1  0.4513690000000  0.4611730000000  0.4408190000000 1.0
C      1  0.4516990000000  0.5388900000000  0.5582930000000 1.0
C      1  0.4624010000000  0.4409000000000  0.4516170000000 1.0
C      1  0.5379440000000  0.5583100000000  0.4512910000000 1.0
C      1  0.5382640000000  0.4416140000000  0.5490320000000 1.0
C      1  0.5586420000000  0.4612420000000  0.5494800000000 1.0
C      1  0.5480800000000  0.5588080000000  0.4616050000000 1.0
C      1  0.4616280000000  0.5491100000000  0.5584470000000 1.0
C      1  0.5582860000000  0.5387870000000  0.4508200000000 1.0
C      1  0.4414870000000  0.5384640000000  0.5483070000000 1.0
C      1  0.4410170000000  0.4614520000000  0.4505120000000 1.0
C      1  0.5485130000000  0.4411370000000  0.5387720000000 1.0
C      1  0.4520510000000  0.4413020000000  0.4617910000000 1.0
C      1  0.4522790000000  0.5593910000000  0.5382450000000 1.0
C      1  0.4617990000000  0.4512950000000  0.4416740000000 1.0
C      1  0.5382790000000  0.4519530000000  0.5596360000000 1.0
C      1  0.5380010000000  0.5479920000000  0.4406650000000 1.0
C      1  0.4758160000000  0.5888090000000  0.5243640000000 1.0
C      1  0.5241690000000  0.5244060000000  0.4112210000000 1.0
C      1  0.5249440000000  0.4107220000000  0.5247710000000 1.0
C      1  0.4110560000000  0.5247680000000  0.5249430000000 1.0
C      1  0.5242010000000  0.4754800000000  0.5889270000000 1.0
C      1  0.4756180000000  0.5250380000000  0.5895090000000 1.0
C      1  0.4093880000000  0.4749100000000  0.4756360000000 1.0
C      1  0.5894950000000  0.5250840000000  0.4747150000000 1.0
C      1  0.5899190000000  0.4753330000000  0.5254370000000 1.0
C      1  0.5247970000000  0.5895950000000  0.4755380000000 1.0
C      1  0.4760900000000  0.4114840000000  0.4755310000000 1.0
C      1  0.4755750000000  0.4748950000000  0.4101980000000 1.0
C      1  0.5339330000000  0.4768690000000  0.5442830000000 1.0
C      1  0.4772110000000  0.5439870000000  0.5336050000000 1.0
C      1  0.5334730000000  0.5229990000000  0.4560030000000 1.0
C      1  0.4657850000000  0.4708140000000  0.4634670000000 1.0
END
