TITL C-3151192-8964-92 2.82065274563489 1000000 -1613.03916280685 0 0 240 (C1) n - 1
REM
REM in /scratch/bkarasulu/Only-C240/Try4-Only-SYMOP24
REM
REM
REM
REM
REM
REM ./C.cell (018bbde761a0794ceee8127bb1f748ef)
REM
REM compiler GCC version 9.2.1 20190827 (Red Hat 9.2.1-1)
REM options -cpp -mtune=generic -march=x86-64 -g -O0 -fpre-include=/usr/include/finclude/math-vector-fortran.h
REM seed 301712926 1257864756 -812153591 -2050188649 -1278384284 -1434421013 -1254160470 -1684025632 -29278676 1006183073 1361453677 -1434444079 1002473186 702493476 -957660682 559672180 2033362074 -742819944 2040502453 1458837157 -1324912585 -2052038544 -1506364876 846204993 1165356692 -717492808 -827293270 -1804053211 -1586861322 2089056858 773130658 -1414408452 -1734246812
REM
CELL 1.54180  100.00000  100.00000  100.00000   90.00000   90.00000   90.00000
LATT -1
SFAC C  
C      1  0.5322920000000  0.4925550000000  0.5557910000000 1.0
C      1  0.4936370000000  0.5520440000000  0.5333750000000 1.0
C      1  0.5542130000000  0.5310270000000  0.4937650000000 1.0
C      1  0.5332100000000  0.5084840000000  0.4454950000000 1.0
C      1  0.4667210000000  0.4937390000000  0.4469260000000 1.0
C      1  0.4670830000000  0.5071400000000  0.5534710000000 1.0
C      1  0.4924040000000  0.4480250000000  0.4638980000000 1.0
C      1  0.5083830000000  0.5541270000000  0.4672120000000 1.0
C      1  0.5064220000000  0.4467890000000  0.5341800000000 1.0
C      1  0.5471610000000  0.4652600000000  0.5076090000000 1.0
C      1  0.4476410000000  0.5345060000000  0.5077460000000 1.0
C      1  0.4468440000000  0.4670680000000  0.4919540000000 1.0
C      1  0.4666630000000  0.4926730000000  0.5533400000000 1.0
C      1  0.5079680000000  0.5520750000000  0.5339670000000 1.0
C      1  0.4478230000000  0.5347560000000  0.4935060000000 1.0
C      1  0.4663550000000  0.5081140000000  0.4468010000000 1.0
C      1  0.5334420000000  0.4941800000000  0.4449790000000 1.0
C      1  0.5325660000000  0.5069040000000  0.5561080000000 1.0
C      1  0.5066780000000  0.4479230000000  0.4634140000000 1.0
C      1  0.4940220000000  0.5543440000000  0.4667360000000 1.0
C      1  0.4919500000000  0.4466110000000  0.5334410000000 1.0
C      1  0.4468610000000  0.4668360000000  0.5062370000000 1.0
C      1  0.5543610000000  0.5316430000000  0.5080380000000 1.0
C      1  0.5466930000000  0.4659360000000  0.4927510000000 1.0
C      1  0.4833750000000  0.5366240000000  0.5141180000000 1.0
C      1  0.5384280000000  0.5137540000000  0.4804520000000 1.0
C      1  0.5148410000000  0.4821890000000  0.5396180000000 1.0
C      1  0.4818420000000  0.4607620000000  0.4832330000000 1.0
C      1  0.5194950000000  0.5400520000000  0.4857820000000 1.0
C      1  0.5157010000000  0.4572500000000  0.5143480000000 1.0
C      1  0.5427350000000  0.4861830000000  0.5219420000000 1.0
C      1  0.4603910000000  0.5152020000000  0.5180210000000 1.0
C      1  0.4615550000000  0.4855760000000  0.4820800000000 1.0
C      1  0.5152540000000  0.5192850000000  0.4590300000000 1.0
C      1  0.4860530000000  0.4838270000000  0.4626840000000 1.0
C      1  0.4867300000000  0.5167030000000  0.5378090000000 1.0
C      1  0.5192630000000  0.5387130000000  0.5153940000000 1.0
C      1  0.4604750000000  0.5150490000000  0.4823630000000 1.0
C      1  0.4853230000000  0.4819350000000  0.5387710000000 1.0
C      1  0.5153460000000  0.4577970000000  0.4839330000000 1.0
C      1  0.4828080000000  0.5409750000000  0.4846140000000 1.0
C      1  0.4821700000000  0.4630890000000  0.5137790000000 1.0
C      1  0.4589640000000  0.4857780000000  0.5182030000000 1.0
C      1  0.5415040000000  0.5137000000000  0.5213010000000 1.0
C      1  0.5390420000000  0.4871950000000  0.4794670000000 1.0
C      1  0.4856040000000  0.5193210000000  0.4600960000000 1.0
C      1  0.5158320000000  0.4827850000000  0.4582600000000 1.0
C      1  0.5160210000000  0.5171060000000  0.5400730000000 1.0
C      1  0.4950740000000  0.4943280000000  0.4586770000000 1.0
C      1  0.4919320000000  0.4662540000000  0.4909800000000 1.0
C      1  0.4670210000000  0.4924590000000  0.4931500000000 1.0
C      1  0.4965290000000  0.5063190000000  0.5406120000000 1.0
C      1  0.5086180000000  0.4915550000000  0.5308480000000 1.0
C      1  0.5082360000000  0.5090640000000  0.4653770000000 1.0
C      1  0.4941070000000  0.5411460000000  0.5052800000000 1.0
C      1  0.5059820000000  0.4649450000000  0.5069210000000 1.0
C      1  0.5094550000000  0.5334950000000  0.4927780000000 1.0
C      1  0.4656640000000  0.5084010000000  0.5066730000000 1.0
C      1  0.5340870000000  0.4923160000000  0.5133320000000 1.0
C      1  0.5270470000000  0.5073330000000  0.4859210000000 1.0
C      1  0.5087140000000  0.4934640000000  0.4633850000000 1.0
C      1  0.5075090000000  0.4674660000000  0.4911240000000 1.0
C      1  0.5270680000000  0.4921620000000  0.4852310000000 1.0
C      1  0.5093270000000  0.5071810000000  0.5326020000000 1.0
C      1  0.4931040000000  0.4930970000000  0.5339180000000 1.0
C      1  0.4928170000000  0.5079800000000  0.4649790000000 1.0
C      1  0.5075950000000  0.5347250000000  0.5078460000000 1.0
C      1  0.4923250000000  0.4596290000000  0.5039220000000 1.0
C      1  0.4937590000000  0.5360760000000  0.4917380000000 1.0
C      1  0.5336720000000  0.5059180000000  0.5133040000000 1.0
C      1  0.4661510000000  0.4934300000000  0.5091220000000 1.0
C      1  0.4610200000000  0.5060180000000  0.4927210000000 1.0
C      1  0.4612950000000  0.5089520000000  0.4689930000000 1.0
C      1  0.5083030000000  0.4698620000000  0.4596420000000 1.0
C      1  0.4687020000000  0.4616510000000  0.5070710000000 1.0
C      1  0.4605550000000  0.4919980000000  0.5314250000000 1.0
C      1  0.5407000000000  0.5077720000000  0.5348510000000 1.0
C      1  0.5403740000000  0.4931450000000  0.4663910000000 1.0
C      1  0.5090700000000  0.5302350000000  0.5395770000000 1.0
C      1  0.4916830000000  0.4687920000000  0.5392030000000 1.0
C      1  0.4924890000000  0.5324350000000  0.4605530000000 1.0
C      1  0.4698720000000  0.5396120000000  0.4919990000000 1.0
C      1  0.5223480000000  0.4487170000000  0.4917150000000 1.0
C      1  0.5323610000000  0.5378240000000  0.5089790000000 1.0
C      1  0.5399790000000  0.5086600000000  0.4667580000000 1.0
C      1  0.4922210000000  0.4702340000000  0.4599940000000 1.0
C      1  0.5225220000000  0.4481650000000  0.5063350000000 1.0
C      1  0.5408090000000  0.4917870000000  0.5350450000000 1.0
C      1  0.4610910000000  0.5081490000000  0.5311670000000 1.0
C      1  0.4615350000000  0.4928440000000  0.4691830000000 1.0
C      1  0.4929770000000  0.5303530000000  0.5391430000000 1.0
C      1  0.5078920000000  0.4688720000000  0.5393430000000 1.0
C      1  0.5086820000000  0.5322770000000  0.4609070000000 1.0
C      1  0.5324080000000  0.5378680000000  0.4927320000000 1.0
C      1  0.4689500000000  0.4615620000000  0.4907090000000 1.0
C      1  0.4698520000000  0.5390440000000  0.5081140000000 1.0
C      1  0.5416900000000  0.5503200000000  0.5124940000000 1.0
C      1  0.5522370000000  0.5111260000000  0.5440230000000 1.0
C      1  0.5121600000000  0.5385700000000  0.5522870000000 1.0
C      1  0.5347330000000  0.4425520000000  0.4867880000000 1.0
C      1  0.4616510000000  0.5525950000000  0.4888050000000 1.0
C      1  0.4609130000000  0.4487600000000  0.5108970000000 1.0
C      1  0.5524610000000  0.4891020000000  0.4576460000000 1.0
C      1  0.4483140000000  0.5124450000000  0.4601540000000 1.0
C      1  0.4481230000000  0.4885390000000  0.5404790000000 1.0
C      1  0.5116280000000  0.4621210000000  0.4462960000000 1.0
C      1  0.4893150000000  0.5414950000000  0.4481600000000 1.0
C      1  0.4874340000000  0.4607040000000  0.5515110000000 1.0
C      1  0.4625410000000  0.5519300000000  0.5124330000000 1.0
C      1  0.4490270000000  0.5118170000000  0.5393080000000 1.0
C      1  0.4885620000000  0.5385450000000  0.5516570000000 1.0
C      1  0.4606630000000  0.4489240000000  0.4871810000000 1.0
C      1  0.5411500000000  0.5500010000000  0.4894410000000 1.0
C      1  0.5348520000000  0.4406940000000  0.5103500000000 1.0
C      1  0.4489640000000  0.4894060000000  0.4614220000000 1.0
C      1  0.5520850000000  0.5133390000000  0.4580830000000 1.0
C      1  0.5518930000000  0.4872940000000  0.5452760000000 1.0
C      1  0.4879160000000  0.4633910000000  0.4467810000000 1.0
C      1  0.5127890000000  0.5406590000000  0.4485320000000 1.0
C      1  0.5111660000000  0.4602220000000  0.5520650000000 1.0
C      1  0.5065610000000  0.4487080000000  0.4491010000000 1.0
C      1  0.4472230000000  0.4523960000000  0.5063220000000 1.0
C      1  0.4520170000000  0.5080130000000  0.4467990000000 1.0
C      1  0.5075440000000  0.5521080000000  0.5482370000000 1.0
C      1  0.4916540000000  0.4469900000000  0.5478660000000 1.0
C      1  0.4941510000000  0.5546460000000  0.4524050000000 1.0
C      1  0.4482510000000  0.5490890000000  0.4935860000000 1.0
C      1  0.5453840000000  0.4512670000000  0.4922610000000 1.0
C      1  0.5549280000000  0.5460520000000  0.5080520000000 1.0
C      1  0.4522440000000  0.4929270000000  0.5536950000000 1.0
C      1  0.5469400000000  0.5065710000000  0.5574340000000 1.0
C      1  0.5477930000000  0.4942330000000  0.4443460000000 1.0
C      1  0.4921010000000  0.4492790000000  0.4495430000000 1.0
C      1  0.5456450000000  0.4503920000000  0.5066180000000 1.0
C      1  0.5476000000000  0.5088070000000  0.4446560000000 1.0
C      1  0.4931090000000  0.5520780000000  0.5477280000000 1.0
C      1  0.5061670000000  0.4468730000000  0.5483850000000 1.0
C      1  0.5085510000000  0.5542680000000  0.4526480000000 1.0
C      1  0.5546330000000  0.5456400000000  0.4936840000000 1.0
C      1  0.4471560000000  0.4525740000000  0.4918200000000 1.0
C      1  0.4485880000000  0.5488540000000  0.5080970000000 1.0
C      1  0.5465400000000  0.4919810000000  0.5579100000000 1.0
C      1  0.4527270000000  0.5074360000000  0.5531020000000 1.0
C      1  0.4523750000000  0.4935820000000  0.4474130000000 1.0
C      1  0.5360800000000  0.5303780000000  0.4592960000000 1.0
C      1  0.5287100000000  0.4593640000000  0.5353780000000 1.0
C      1  0.4604510000000  0.5350560000000  0.5297140000000 1.0
C      1  0.5342130000000  0.4700800000000  0.5422260000000 1.0
C      1  0.4659090000000  0.5287750000000  0.5407550000000 1.0
C      1  0.4648660000000  0.4722630000000  0.4586430000000 1.0
C      1  0.5306710000000  0.5413190000000  0.4657270000000 1.0
C      1  0.4703910000000  0.4605670000000  0.4634340000000 1.0
C      1  0.4721100000000  0.5399040000000  0.5353760000000 1.0
C      1  0.4593940000000  0.4660580000000  0.4696280000000 1.0
C      1  0.5415790000000  0.5348990000000  0.4712220000000 1.0
C      1  0.5403980000000  0.4652060000000  0.5307660000000 1.0
C      1  0.4650940000000  0.5306040000000  0.4593270000000 1.0
C      1  0.4703270000000  0.4593410000000  0.5345890000000 1.0
C      1  0.5419060000000  0.5341590000000  0.5310260000000 1.0
C      1  0.4645720000000  0.4706170000000  0.5400730000000 1.0
C      1  0.5360010000000  0.5293920000000  0.5427360000000 1.0
C      1  0.5352220000000  0.4711540000000  0.4576700000000 1.0
C      1  0.4708810000000  0.5418550000000  0.4648780000000 1.0
C      1  0.5292790000000  0.4603190000000  0.4638320000000 1.0
C      1  0.5305660000000  0.5401260000000  0.5362340000000 1.0
C      1  0.5404370000000  0.4663840000000  0.4696650000000 1.0
C      1  0.4599300000000  0.5359270000000  0.4709320000000 1.0
C      1  0.4591980000000  0.4651020000000  0.5285850000000 1.0
C      1  0.4585780000000  0.4714250000000  0.4835670000000 1.0
C      1  0.4712550000000  0.4856700000000  0.4584830000000 1.0
C      1  0.4840950000000  0.4591850000000  0.4689760000000 1.0
C      1  0.4587960000000  0.5295160000000  0.5161680000000 1.0
C      1  0.5455520000000  0.4724000000000  0.5197370000000 1.0
C      1  0.5424910000000  0.5276020000000  0.4846600000000 1.0
C      1  0.4717480000000  0.5151910000000  0.5418500000000 1.0
C      1  0.5290180000000  0.4841150000000  0.5436130000000 1.0
C      1  0.5295450000000  0.5170500000000  0.4569460000000 1.0
C      1  0.4855390000000  0.5404580000000  0.5290690000000 1.0
C      1  0.5152670000000  0.4575830000000  0.5292900000000 1.0
C      1  0.5169880000000  0.5426710000000  0.4715440000000 1.0
C      1  0.5437210000000  0.4737250000000  0.4813990000000 1.0
C      1  0.5299900000000  0.4848270000000  0.4560680000000 1.0
C      1  0.5153190000000  0.4585590000000  0.4690730000000 1.0
C      1  0.5434120000000  0.5278280000000  0.5175560000000 1.0
C      1  0.4578050000000  0.4713780000000  0.5151110000000 1.0
C      1  0.4590960000000  0.5298080000000  0.4847040000000 1.0
C      1  0.5298090000000  0.5156220000000  0.5441940000000 1.0
C      1  0.4708010000000  0.4841310000000  0.5415140000000 1.0
C      1  0.4709560000000  0.5169560000000  0.4581000000000 1.0
C      1  0.5169620000000  0.5408400000000  0.5298470000000 1.0
C      1  0.4839140000000  0.4581740000000  0.5287760000000 1.0
C      1  0.4847610000000  0.5430160000000  0.4703710000000 1.0
C      1  0.5081930000000  0.5181070000000  0.4894640000000 1.0
C      1  0.5220150000000  0.4859390000000  0.5094250000000 1.0
C      1  0.4843460000000  0.5126080000000  0.5237950000000 1.0
C      1  0.5010760000000  0.4768210000000  0.5138910000000 1.0
C      1  0.4867360000000  0.5213440000000  0.5129140000000 1.0
C      1  0.4915040000000  0.4821930000000  0.4889560000000 1.0
C      1  0.5198800000000  0.5133870000000  0.4971220000000 1.0
C      1  0.4817940000000  0.4893600000000  0.4970670000000 1.0
C      1  0.4793320000000  0.5136510000000  0.5022190000000 1.0
C      1  0.4863190000000  0.4884420000000  0.4768800000000 1.0
C      1  0.5126430000000  0.5077590000000  0.4792740000000 1.0
C      1  0.5101720000000  0.4865260000000  0.5171060000000 1.0
C      1  0.4942920000000  0.5217270000000  0.4880660000000 1.0
C      1  0.4812000000000  0.4897760000000  0.5117750000000 1.0
C      1  0.5098720000000  0.5122660000000  0.5183180000000 1.0
C      1  0.4868980000000  0.4770760000000  0.5159230000000 1.0
C      1  0.5016380000000  0.5221780000000  0.5133400000000 1.0
C      1  0.5073490000000  0.4827090000000  0.4887110000000 1.0
C      1  0.4845780000000  0.5120890000000  0.4888450000000 1.0
C      1  0.5200430000000  0.4848660000000  0.4961010000000 1.0
C      1  0.5211670000000  0.5110980000000  0.5102110000000 1.0
C      1  0.5123480000000  0.4925240000000  0.4783280000000 1.0
C      1  0.4865060000000  0.5028160000000  0.4776670000000 1.0
C      1  0.4864470000000  0.4987210000000  0.5220210000000 1.0
C      1  0.4655520000000  0.4362070000000  0.5054500000000 1.0
C      1  0.4353360000000  0.5087070000000  0.4652050000000 1.0
C      1  0.5062870000000  0.4678070000000  0.4342030000000 1.0
C      1  0.4670590000000  0.5646330000000  0.4943570000000 1.0
C      1  0.5379980000000  0.4287310000000  0.4886500000000 1.0
C      1  0.5373450000000  0.5636670000000  0.5091290000000 1.0
C      1  0.4351410000000  0.4921810000000  0.5354130000000 1.0
C      1  0.5626900000000  0.5027470000000  0.5390870000000 1.0
C      1  0.5652750000000  0.4949160000000  0.4611210000000 1.0
C      1  0.5064170000000  0.5341330000000  0.5646380000000 1.0
C      1  0.4928120000000  0.4654050000000  0.5639100000000 1.0
C      1  0.4925830000000  0.5367960000000  0.4349520000000 1.0
C      1  0.5369430000000  0.4302810000000  0.5015060000000 1.0
C      1  0.5648770000000  0.5080320000000  0.4616930000000 1.0
C      1  0.4931710000000  0.4681900000000  0.4342320000000 1.0
C      1  0.5359740000000  0.5613320000000  0.4964960000000 1.0
C      1  0.4659640000000  0.4367200000000  0.4923390000000 1.0
C      1  0.4671680000000  0.5646910000000  0.5074920000000 1.0
C      1  0.5657180000000  0.4907030000000  0.5426910000000 1.0
C      1  0.4381000000000  0.5046340000000  0.5337540000000 1.0
C      1  0.4374720000000  0.4959580000000  0.4667050000000 1.0
C      1  0.4933360000000  0.5343630000000  0.5646780000000 1.0
C      1  0.5058660000000  0.4646930000000  0.5648070000000 1.0
C      1  0.5051860000000  0.5354190000000  0.4375910000000 1.0
END
