TITL C-3151192-8964-153 -0.0924596472330853 1000000 -3749.50209758829 0 0 520 (C1) n - 1
REM
REM in /scratch/bkarasulu/Only-C240/Try4-Only-SYMOP24
REM
REM
REM
REM
REM
REM ./C.cell (018bbde761a0794ceee8127bb1f748ef)
REM
REM compiler GCC version 9.2.1 20190827 (Red Hat 9.2.1-1)
REM options -cpp -mtune=generic -march=x86-64 -g -O0 -fpre-include=/usr/include/finclude/math-vector-fortran.h
REM seed -578455892 -974182025 1194819237 1738321183 -1273355362 -868733016 1076156275 -1415502213 -1850772423 904028322 1392743366 -296122216 6710111 1877196923 -1933975047 1752343270 -868878911 -2001689156 -319633266 1012194442 553436315 -1099122284 -931799409 602125184 1316600621 774400037 -1507751424 -1554730935 181482418 -1865480193 -418738613 702474231 -616829929
REM
CELL 1.54180  100.00000  100.00000  100.00000   90.00000   90.00000   90.00000
LATT -1
SFAC C  
C      1  0.5497150000000  0.5605350000000  0.4613180000000 1.0
C      1  0.4605070000000  0.5495930000000  0.5602960000000 1.0
C      1  0.5600230000000  0.4598510000000  0.5493980000000 1.0
C      1  0.4504690000000  0.5603230000000  0.5402810000000 1.0
C      1  0.5494720000000  0.4397140000000  0.5393840000000 1.0
C      1  0.4500610000000  0.4408250000000  0.4606760000000 1.0
C      1  0.5402190000000  0.5503280000000  0.4409680000000 1.0
C      1  0.4599010000000  0.4515460000000  0.4405210000000 1.0
C      1  0.5396960000000  0.4500590000000  0.5597590000000 1.0
C      1  0.4399010000000  0.4614160000000  0.4512340000000 1.0
C      1  0.5603470000000  0.5403290000000  0.4513630000000 1.0
C      1  0.4399710000000  0.5400660000000  0.5500480000000 1.0
C      1  0.4605200000000  0.5600880000000  0.5499250000000 1.0
C      1  0.5601230000000  0.5500560000000  0.4613200000000 1.0
C      1  0.5495450000000  0.4598570000000  0.5598220000000 1.0
C      1  0.5400250000000  0.5607440000000  0.4513990000000 1.0
C      1  0.5396750000000  0.4396610000000  0.5492480000000 1.0
C      1  0.4598760000000  0.4409200000000  0.4508340000000 1.0
C      1  0.4399520000000  0.5499090000000  0.5401820000000 1.0
C      1  0.4397600000000  0.4514580000000  0.4609640000000 1.0
C      1  0.5599560000000  0.4501380000000  0.5394590000000 1.0
C      1  0.4502320000000  0.4615060000000  0.4406480000000 1.0
C      1  0.4505590000000  0.5398860000000  0.5603530000000 1.0
C      1  0.5500180000000  0.5405120000000  0.4407880000000 1.0
C      1  0.5213610000000  0.5007080000000  0.4897650000000 1.0
C      1  0.4891050000000  0.5220580000000  0.5004870000000 1.0
C      1  0.5001450000000  0.4892210000000  0.5220480000000 1.0
C      1  0.4785080000000  0.5004360000000  0.5116270000000 1.0
C      1  0.5214280000000  0.4998500000000  0.5109870000000 1.0
C      1  0.4785670000000  0.5000940000000  0.4904820000000 1.0
C      1  0.5107320000000  0.5221460000000  0.5008200000000 1.0
C      1  0.4889850000000  0.4784690000000  0.5008510000000 1.0
C      1  0.5107650000000  0.4786390000000  0.4998080000000 1.0
C      1  0.4994390000000  0.4900650000000  0.4787890000000 1.0
C      1  0.5000690000000  0.5114800000000  0.4792250000000 1.0
C      1  0.4999340000000  0.5108040000000  0.5221790000000 1.0
C      1  0.4892630000000  0.5000430000000  0.5223530000000 1.0
C      1  0.5000310000000  0.5223320000000  0.4899120000000 1.0
C      1  0.5216620000000  0.4894160000000  0.4999280000000 1.0
C      1  0.5106080000000  0.5006340000000  0.4789280000000 1.0
C      1  0.5108450000000  0.4999620000000  0.5220160000000 1.0
C      1  0.4887850000000  0.5010260000000  0.4792330000000 1.0
C      1  0.4996150000000  0.5216650000000  0.5112920000000 1.0
C      1  0.4993420000000  0.4791400000000  0.4896580000000 1.0
C      1  0.5003790000000  0.4786900000000  0.5109240000000 1.0
C      1  0.4783130000000  0.4892960000000  0.5012770000000 1.0
C      1  0.4785540000000  0.5110320000000  0.5009010000000 1.0
C      1  0.5215880000000  0.5111980000000  0.5007760000000 1.0
C      1  0.5509640000000  0.5057150000000  0.5610090000000 1.0
C      1  0.5628130000000  0.5535530000000  0.5073870000000 1.0
C      1  0.5063000000000  0.5578330000000  0.5497090000000 1.0
C      1  0.4478590000000  0.5078540000000  0.4377570000000 1.0
C      1  0.5508470000000  0.4947790000000  0.4388600000000 1.0
C      1  0.4490140000000  0.4937260000000  0.5605370000000 1.0
C      1  0.4422800000000  0.5499430000000  0.4939970000000 1.0
C      1  0.5629400000000  0.4470010000000  0.4929450000000 1.0
C      1  0.4402480000000  0.4492780000000  0.5074570000000 1.0
C      1  0.4941320000000  0.5625590000000  0.4497180000000 1.0
C      1  0.5059200000000  0.4427050000000  0.4508060000000 1.0
C      1  0.4940360000000  0.4416280000000  0.5492710000000 1.0
C      1  0.5586430000000  0.5062300000000  0.5491410000000 1.0
C      1  0.5060920000000  0.5506110000000  0.5618360000000 1.0
C      1  0.5525080000000  0.5632420000000  0.5074350000000 1.0
C      1  0.4412550000000  0.5072380000000  0.4506230000000 1.0
C      1  0.4408620000000  0.4932140000000  0.5488050000000 1.0
C      1  0.5580760000000  0.4944730000000  0.4509950000000 1.0
C      1  0.4939530000000  0.5507550000000  0.4420070000000 1.0
C      1  0.4941580000000  0.4487740000000  0.5614550000000 1.0
C      1  0.5057180000000  0.4499040000000  0.4387350000000 1.0
C      1  0.4493230000000  0.5620570000000  0.4941920000000 1.0
C      1  0.4477050000000  0.4367760000000  0.5069270000000 1.0
C      1  0.5529460000000  0.4370370000000  0.4928550000000 1.0
C      1  0.4382860000000  0.4464020000000  0.5343500000000 1.0
C      1  0.5406020000000  0.4393760000000  0.4566430000000 1.0
C      1  0.4477610000000  0.5350020000000  0.4385450000000 1.0
C      1  0.5616610000000  0.4485750000000  0.4659570000000 1.0
C      1  0.4386820000000  0.5447030000000  0.4594990000000 1.0
C      1  0.5619310000000  0.5527130000000  0.5344410000000 1.0
C      1  0.4596640000000  0.4379320000000  0.5434300000000 1.0
C      1  0.5409150000000  0.5615340000000  0.5439700000000 1.0
C      1  0.4601780000000  0.5520620000000  0.4504320000000 1.0
C      1  0.5498510000000  0.5400120000000  0.5511760000000 1.0
C      1  0.4508170000000  0.4592980000000  0.5509530000000 1.0
C      1  0.5490920000000  0.4610840000000  0.4495920000000 1.0
C      1  0.5393770000000  0.4514860000000  0.4495490000000 1.0
C      1  0.4488380000000  0.4369900000000  0.5339170000000 1.0
C      1  0.4373700000000  0.5357690000000  0.4483920000000 1.0
C      1  0.4606770000000  0.4499160000000  0.5508420000000 1.0
C      1  0.4585810000000  0.5444260000000  0.4386270000000 1.0
C      1  0.5399020000000  0.5494460000000  0.5512340000000 1.0
C      1  0.5516340000000  0.4386070000000  0.4658680000000 1.0
C      1  0.5517440000000  0.5624350000000  0.5345110000000 1.0
C      1  0.4508720000000  0.5516500000000  0.4604850000000 1.0
C      1  0.5616390000000  0.5419470000000  0.5438380000000 1.0
C      1  0.5611130000000  0.4597230000000  0.4568230000000 1.0
C      1  0.4390470000000  0.4571510000000  0.5436340000000 1.0
C      1  0.5386350000000  0.4367630000000  0.5152990000000 1.0
C      1  0.5167910000000  0.5386730000000  0.4382970000000 1.0
C      1  0.4365620000000  0.5165990000000  0.5386950000000 1.0
C      1  0.4611750000000  0.4370500000000  0.4843390000000 1.0
C      1  0.5381420000000  0.5633230000000  0.4850170000000 1.0
C      1  0.4615230000000  0.5637770000000  0.5165710000000 1.0
C      1  0.4839660000000  0.5377430000000  0.5631320000000 1.0
C      1  0.5161580000000  0.4617910000000  0.5626240000000 1.0
C      1  0.4835880000000  0.4627130000000  0.4376030000000 1.0
C      1  0.5630450000000  0.5166080000000  0.4624510000000 1.0
C      1  0.4370190000000  0.4848210000000  0.4627650000000 1.0
C      1  0.5629750000000  0.4834660000000  0.5381750000000 1.0
C      1  0.5161390000000  0.4368380000000  0.5378210000000 1.0
C      1  0.4371340000000  0.5389470000000  0.5161020000000 1.0
C      1  0.5383450000000  0.5169960000000  0.4374030000000 1.0
C      1  0.4836700000000  0.4377540000000  0.4619000000000 1.0
C      1  0.4840970000000  0.5629100000000  0.5382520000000 1.0
C      1  0.5162380000000  0.5637550000000  0.4625250000000 1.0
C      1  0.5632190000000  0.5390200000000  0.4851580000000 1.0
C      1  0.5630990000000  0.4611700000000  0.5155010000000 1.0
C      1  0.4367530000000  0.4620440000000  0.4850910000000 1.0
C      1  0.4619090000000  0.5160740000000  0.5628970000000 1.0
C      1  0.4616470000000  0.4854630000000  0.4379270000000 1.0
C      1  0.5380110000000  0.4835220000000  0.5625970000000 1.0
C      1  0.5016240000000  0.4674350000000  0.5208310000000 1.0
C      1  0.5217910000000  0.5011580000000  0.4684450000000 1.0
C      1  0.4676010000000  0.5214170000000  0.5015790000000 1.0
C      1  0.4981270000000  0.4681930000000  0.4793940000000 1.0
C      1  0.5005450000000  0.5330910000000  0.4791020000000 1.0
C      1  0.4985020000000  0.5325030000000  0.5215710000000 1.0
C      1  0.4781140000000  0.5003980000000  0.5325540000000 1.0
C      1  0.5220520000000  0.4993590000000  0.5321740000000 1.0
C      1  0.4771660000000  0.5016490000000  0.4689410000000 1.0
C      1  0.5338900000000  0.5202020000000  0.5009260000000 1.0
C      1  0.4659240000000  0.4804810000000  0.5009910000000 1.0
C      1  0.5339110000000  0.4804050000000  0.4997370000000 1.0
C      1  0.5197010000000  0.4663110000000  0.4995980000000 1.0
C      1  0.4672600000000  0.5014420000000  0.5217050000000 1.0
C      1  0.5013290000000  0.5219640000000  0.4684920000000 1.0
C      1  0.4798860000000  0.4661790000000  0.5007250000000 1.0
C      1  0.4781330000000  0.5327070000000  0.5007330000000 1.0
C      1  0.5198140000000  0.5341400000000  0.5008530000000 1.0
C      1  0.5324650000000  0.5019780000000  0.4796640000000 1.0
C      1  0.5326510000000  0.4985110000000  0.5210230000000 1.0
C      1  0.4666690000000  0.4988010000000  0.4815000000000 1.0
C      1  0.4995130000000  0.5217950000000  0.5325160000000 1.0
C      1  0.4990140000000  0.4790780000000  0.4683450000000 1.0
C      1  0.5005920000000  0.4779320000000  0.5321240000000 1.0
C      1  0.4571770000000  0.4989770000000  0.4324450000000 1.0
C      1  0.4323700000000  0.4573640000000  0.4986160000000 1.0
C      1  0.4978760000000  0.4337070000000  0.4575020000000 1.0
C      1  0.5426930000000  0.4967060000000  0.5677980000000 1.0
C      1  0.4571670000000  0.5027200000000  0.5675790000000 1.0
C      1  0.5429160000000  0.5039280000000  0.4317830000000 1.0
C      1  0.5686100000000  0.4559770000000  0.5023170000000 1.0
C      1  0.4331380000000  0.5433010000000  0.5019100000000 1.0
C      1  0.5685780000000  0.5442350000000  0.4983370000000 1.0
C      1  0.5020190000000  0.4327300000000  0.5422540000000 1.0
C      1  0.4983570000000  0.5665710000000  0.5424790000000 1.0
C      1  0.5032240000000  0.5695110000000  0.4576500000000 1.0
C      1  0.4328400000000  0.4984830000000  0.4581420000000 1.0
C      1  0.4966150000000  0.4578440000000  0.4317570000000 1.0
C      1  0.4562500000000  0.4311270000000  0.4974440000000 1.0
C      1  0.5670790000000  0.4974730000000  0.5425530000000 1.0
C      1  0.5670350000000  0.5024570000000  0.4579380000000 1.0
C      1  0.4323330000000  0.5022770000000  0.5425790000000 1.0
C      1  0.5030760000000  0.4571560000000  0.5681970000000 1.0
C      1  0.5034780000000  0.5445950000000  0.4339570000000 1.0
C      1  0.4970940000000  0.5422910000000  0.5685990000000 1.0
C      1  0.5438760000000  0.4313140000000  0.5021070000000 1.0
C      1  0.5431230000000  0.5685860000000  0.4983050000000 1.0
C      1  0.4567940000000  0.5694150000000  0.5034760000000 1.0
C      1  0.5123860000000  0.5248270000000  0.4172870000000 1.0
C      1  0.4158200000000  0.5158990000000  0.5242360000000 1.0
C      1  0.5241060000000  0.4158860000000  0.5139200000000 1.0
C      1  0.4863790000000  0.5230950000000  0.5833160000000 1.0
C      1  0.5136930000000  0.4761220000000  0.5830860000000 1.0
C      1  0.4858170000000  0.4770690000000  0.4170820000000 1.0
C      1  0.5838910000000  0.5144090000000  0.4762400000000 1.0
C      1  0.4159790000000  0.4865960000000  0.4769490000000 1.0
C      1  0.5839750000000  0.4854330000000  0.5244310000000 1.0
C      1  0.4757900000000  0.4161590000000  0.4850080000000 1.0
C      1  0.5239720000000  0.5842260000000  0.4868390000000 1.0
C      1  0.4763510000000  0.5840970000000  0.5148010000000 1.0
C      1  0.4160360000000  0.5259650000000  0.5140460000000 1.0
C      1  0.5229590000000  0.5149490000000  0.4172230000000 1.0
C      1  0.5140230000000  0.4160220000000  0.5240130000000 1.0
C      1  0.5840370000000  0.5244710000000  0.4864420000000 1.0
C      1  0.5841380000000  0.4753480000000  0.5143210000000 1.0
C      1  0.4159900000000  0.4764860000000  0.4871450000000 1.0
C      1  0.4763040000000  0.5131280000000  0.5831780000000 1.0
C      1  0.4758800000000  0.4871990000000  0.4171330000000 1.0
C      1  0.5237300000000  0.4861010000000  0.5830680000000 1.0
C      1  0.4859200000000  0.4165780000000  0.4749900000000 1.0
C      1  0.4865760000000  0.5838270000000  0.5247610000000 1.0
C      1  0.5139930000000  0.5842890000000  0.4767760000000 1.0
C      1  0.4989800000000  0.4208160000000  0.4775030000000 1.0
C      1  0.4791590000000  0.4997730000000  0.4221960000000 1.0
C      1  0.4201140000000  0.4785700000000  0.5004920000000 1.0
C      1  0.5009160000000  0.4202540000000  0.5217840000000 1.0
C      1  0.4992990000000  0.5788670000000  0.5219130000000 1.0
C      1  0.5007750000000  0.5803330000000  0.4791520000000 1.0
C      1  0.5208950000000  0.4989500000000  0.5784320000000 1.0
C      1  0.4790420000000  0.5003460000000  0.5783420000000 1.0
C      1  0.5209410000000  0.5017870000000  0.4214020000000 1.0
C      1  0.5801530000000  0.4777570000000  0.5011550000000 1.0
C      1  0.4205220000000  0.5232320000000  0.5010520000000 1.0
C      1  0.5800760000000  0.5223300000000  0.4996840000000 1.0
C      1  0.4780500000000  0.4197190000000  0.4983180000000 1.0
C      1  0.4200410000000  0.5000200000000  0.4788140000000 1.0
C      1  0.4989900000000  0.4794650000000  0.4211050000000 1.0
C      1  0.5219900000000  0.4199130000000  0.5006980000000 1.0
C      1  0.5210710000000  0.5796490000000  0.4997050000000 1.0
C      1  0.4784430000000  0.5800900000000  0.5015620000000 1.0
C      1  0.5799360000000  0.4985200000000  0.5221070000000 1.0
C      1  0.5796810000000  0.5012590000000  0.4782600000000 1.0
C      1  0.4199850000000  0.5030130000000  0.5215740000000 1.0
C      1  0.5008020000000  0.4790100000000  0.5785530000000 1.0
C      1  0.4994120000000  0.5200410000000  0.4211170000000 1.0
C      1  0.4992740000000  0.5202720000000  0.5787410000000 1.0
C      1  0.4861450000000  0.5252980000000  0.5522550000000 1.0
C      1  0.5526940000000  0.4847560000000  0.5254440000000 1.0
C      1  0.5249720000000  0.5531370000000  0.4864410000000 1.0
C      1  0.5150520000000  0.5258480000000  0.4485420000000 1.0
C      1  0.4858160000000  0.4748790000000  0.4485200000000 1.0
C      1  0.5140100000000  0.4742770000000  0.5517860000000 1.0
C      1  0.4473190000000  0.4854430000000  0.4752150000000 1.0
C      1  0.5527270000000  0.5155550000000  0.4752240000000 1.0
C      1  0.4472240000000  0.5152370000000  0.5262590000000 1.0
C      1  0.4736160000000  0.5527900000000  0.5139770000000 1.0
C      1  0.5258950000000  0.4469950000000  0.5135120000000 1.0
C      1  0.4738070000000  0.4473100000000  0.4862910000000 1.0
C      1  0.5530360000000  0.5262390000000  0.4868020000000 1.0
C      1  0.5254370000000  0.4856780000000  0.5518100000000 1.0
C      1  0.4847590000000  0.5525610000000  0.5252620000000 1.0
C      1  0.4473600000000  0.5261150000000  0.5149900000000 1.0
C      1  0.4470650000000  0.4744180000000  0.4862640000000 1.0
C      1  0.5530180000000  0.4740820000000  0.5137660000000 1.0
C      1  0.4745880000000  0.4864940000000  0.4485920000000 1.0
C      1  0.4746820000000  0.5139010000000  0.5522730000000 1.0
C      1  0.5261870000000  0.5144790000000  0.4484620000000 1.0
C      1  0.5138940000000  0.5529600000000  0.4748350000000 1.0
C      1  0.5151780000000  0.4472590000000  0.5251050000000 1.0
C      1  0.4845620000000  0.4480140000000  0.4747720000000 1.0
C      1  0.4310050000000  0.5012160000000  0.5118230000000 1.0
C      1  0.5109580000000  0.4306870000000  0.4996570000000 1.0
C      1  0.5003700000000  0.5110670000000  0.4334590000000 1.0
C      1  0.5691070000000  0.5002250000000  0.4891300000000 1.0
C      1  0.4300430000000  0.5009060000000  0.4899050000000 1.0
C      1  0.5691730000000  0.4998660000000  0.5115440000000 1.0
C      1  0.4888180000000  0.4306630000000  0.4997880000000 1.0
C      1  0.5100870000000  0.5687300000000  0.5000030000000 1.0
C      1  0.4879040000000  0.5681050000000  0.4996150000000 1.0
C      1  0.5003830000000  0.5108430000000  0.5665990000000 1.0
C      1  0.4997280000000  0.4885000000000  0.5664530000000 1.0
C      1  0.5008440000000  0.4888010000000  0.4331810000000 1.0
C      1  0.5116810000000  0.4998680000000  0.4333550000000 1.0
C      1  0.4999590000000  0.4309640000000  0.5109770000000 1.0
C      1  0.4313610000000  0.5122030000000  0.5005050000000 1.0
C      1  0.4888200000000  0.4992950000000  0.5665080000000 1.0
C      1  0.4896110000000  0.4999050000000  0.4334210000000 1.0
C      1  0.5112670000000  0.5000190000000  0.5664620000000 1.0
C      1  0.4997980000000  0.4313960000000  0.4884950000000 1.0
C      1  0.4991970000000  0.5678750000000  0.5110470000000 1.0
C      1  0.4988620000000  0.5685170000000  0.4886580000000 1.0
C      1  0.5695490000000  0.5111280000000  0.5005230000000 1.0
C      1  0.5694990000000  0.4889560000000  0.5001400000000 1.0
C      1  0.4297940000000  0.4899900000000  0.5011660000000 1.0
C      1  0.5551970000000  0.5192160000000  0.5420690000000 1.0
C      1  0.5409530000000  0.5510670000000  0.5197320000000 1.0
C      1  0.5260060000000  0.5441470000000  0.5519090000000 1.0
C      1  0.4476950000000  0.5179480000000  0.4586630000000 1.0
C      1  0.5541870000000  0.4819250000000  0.4580820000000 1.0
C      1  0.4443470000000  0.4800640000000  0.5418160000000 1.0
C      1  0.4561290000000  0.5518920000000  0.4743990000000 1.0
C      1  0.5408260000000  0.4496020000000  0.4808370000000 1.0
C      1  0.4593800000000  0.4489950000000  0.5205020000000 1.0
C      1  0.4812160000000  0.5433680000000  0.4450590000000 1.0
C      1  0.5254210000000  0.4565860000000  0.4488240000000 1.0
C      1  0.4744170000000  0.4553170000000  0.5514180000000 1.0
C      1  0.5452540000000  0.5259320000000  0.5515340000000 1.0
C      1  0.5189310000000  0.5541700000000  0.5427920000000 1.0
C      1  0.5506480000000  0.5414420000000  0.5196780000000 1.0
C      1  0.4581910000000  0.5226330000000  0.4499700000000 1.0
C      1  0.4549490000000  0.4735610000000  0.5510180000000 1.0
C      1  0.5440780000000  0.4750420000000  0.4488880000000 1.0
C      1  0.4741340000000  0.5526300000000  0.4551570000000 1.0
C      1  0.4815660000000  0.4454370000000  0.5421760000000 1.0
C      1  0.5184530000000  0.4464480000000  0.4579230000000 1.0
C      1  0.4459170000000  0.5428110000000  0.4814260000000 1.0
C      1  0.4491070000000  0.4578090000000  0.5169770000000 1.0
C      1  0.5505750000000  0.4592720000000  0.4808750000000 1.0
C      1  0.4675300000000  0.4250560000000  0.4775700000000 1.0
C      1  0.4776130000000  0.4691380000000  0.4255230000000 1.0
C      1  0.4246190000000  0.4786550000000  0.4689020000000 1.0
C      1  0.5322920000000  0.4245470000000  0.5217150000000 1.0
C      1  0.4681320000000  0.5756940000000  0.5227440000000 1.0
C      1  0.5322570000000  0.5757720000000  0.4788980000000 1.0
C      1  0.5218790000000  0.4678310000000  0.5749600000000 1.0
C      1  0.4781860000000  0.5315560000000  0.5753780000000 1.0
C      1  0.5213000000000  0.5327550000000  0.4254350000000 1.0
C      1  0.5751560000000  0.4774220000000  0.5322360000000 1.0
C      1  0.4246960000000  0.5233260000000  0.5325470000000 1.0
C      1  0.5752340000000  0.5225780000000  0.4684450000000 1.0
C      1  0.4777280000000  0.4254490000000  0.4674710000000 1.0
C      1  0.4245240000000  0.4684680000000  0.4790380000000 1.0
C      1  0.4676130000000  0.4793210000000  0.4256460000000 1.0
C      1  0.5221340000000  0.4246830000000  0.5318670000000 1.0
C      1  0.5222030000000  0.5758750000000  0.4687820000000 1.0
C      1  0.4783980000000  0.5753730000000  0.5327520000000 1.0
C      1  0.5753200000000  0.4673010000000  0.5220650000000 1.0
C      1  0.5753920000000  0.5326980000000  0.4786740000000 1.0
C      1  0.4248750000000  0.5334520000000  0.5222880000000 1.0
C      1  0.5319660000000  0.4778730000000  0.5749540000000 1.0
C      1  0.5315050000000  0.5227740000000  0.4253530000000 1.0
C      1  0.4680470000000  0.5215410000000  0.5752850000000 1.0
C      1  0.5755940000000  0.5380250000000  0.5192370000000 1.0
C      1  0.5203260000000  0.5761930000000  0.5356660000000 1.0
C      1  0.5366380000000  0.5182520000000  0.5745420000000 1.0
C      1  0.4234430000000  0.5365510000000  0.4796980000000 1.0
C      1  0.5763460000000  0.4623600000000  0.4816470000000 1.0
C      1  0.4246680000000  0.4622320000000  0.5201090000000 1.0
C      1  0.4815290000000  0.5758310000000  0.4640260000000 1.0
C      1  0.5198990000000  0.4242390000000  0.4644020000000 1.0
C      1  0.4800850000000  0.4232670000000  0.5349390000000 1.0
C      1  0.4643220000000  0.5201240000000  0.4258100000000 1.0
C      1  0.5361680000000  0.4824200000000  0.4254860000000 1.0
C      1  0.4633670000000  0.4811130000000  0.5741360000000 1.0
C      1  0.5186670000000  0.5359540000000  0.5750360000000 1.0
C      1  0.5373930000000  0.5767290000000  0.5189240000000 1.0
C      1  0.5778410000000  0.5181500000000  0.5362300000000 1.0
C      1  0.4879720000000  0.5289650000000  0.4205040000000 1.0
C      1  0.4814140000000  0.4633980000000  0.5746240000000 1.0
C      1  0.5182740000000  0.4643900000000  0.4253810000000 1.0
C      1  0.4636510000000  0.5756740000000  0.4819480000000 1.0
C      1  0.4627940000000  0.4228130000000  0.5178760000000 1.0
C      1  0.5376630000000  0.4237550000000  0.4813420000000 1.0
C      1  0.4232020000000  0.5197120000000  0.4627750000000 1.0
C      1  0.4180950000000  0.4837840000000  0.5314960000000 1.0
C      1  0.5762680000000  0.4804750000000  0.4648760000000 1.0
C      1  0.4955740000000  0.5779540000000  0.4662450000000 1.0
C      1  0.4661240000000  0.4950900000000  0.5757340000000 1.0
C      1  0.5772160000000  0.4649270000000  0.4954060000000 1.0
C      1  0.5060000000000  0.5752590000000  0.5340260000000 1.0
C      1  0.4944330000000  0.4238270000000  0.5339950000000 1.0
C      1  0.5055510000000  0.4246440000000  0.4654760000000 1.0
C      1  0.5339380000000  0.4964880000000  0.4235360000000 1.0
C      1  0.4667970000000  0.5063160000000  0.4248160000000 1.0
C      1  0.5337870000000  0.5042670000000  0.5760000000000 1.0
C      1  0.4240870000000  0.4659270000000  0.5064280000000 1.0
C      1  0.5769360000000  0.5350940000000  0.5056570000000 1.0
C      1  0.4241670000000  0.5351710000000  0.4941580000000 1.0
C      1  0.4655760000000  0.5778850000000  0.4960540000000 1.0
C      1  0.5759510000000  0.4948060000000  0.4660610000000 1.0
C      1  0.4954260000000  0.4661410000000  0.5762870000000 1.0
C      1  0.5339860000000  0.5768790000000  0.5053130000000 1.0
C      1  0.5349340000000  0.4228090000000  0.4950780000000 1.0
C      1  0.4651860000000  0.4222690000000  0.5040610000000 1.0
C      1  0.4222970000000  0.4962070000000  0.5338980000000 1.0
C      1  0.4238920000000  0.5058800000000  0.4661970000000 1.0
C      1  0.5765560000000  0.5045690000000  0.5345450000000 1.0
C      1  0.5042090000000  0.4665260000000  0.4232830000000 1.0
C      1  0.5046570000000  0.5331870000000  0.5765990000000 1.0
C      1  0.4970090000000  0.5383150000000  0.4238430000000 1.0
C      1  0.4439040000000  0.5022200000000  0.5201270000000 1.0
C      1  0.5180390000000  0.4435360000000  0.5011820000000 1.0
C      1  0.5021530000000  0.5194590000000  0.4457690000000 1.0
C      1  0.5557150000000  0.5025600000000  0.4816230000000 1.0
C      1  0.4443840000000  0.4965860000000  0.4857970000000 1.0
C      1  0.5559330000000  0.4978680000000  0.5193310000000 1.0
C      1  0.4814800000000  0.4434760000000  0.4987110000000 1.0
C      1  0.5173980000000  0.5562390000000  0.4987820000000 1.0
C      1  0.4793510000000  0.5552690000000  0.5001930000000 1.0
C      1  0.4998760000000  0.5194930000000  0.5542100000000 1.0
C      1  0.5002730000000  0.4800420000000  0.5539240000000 1.0
C      1  0.4996200000000  0.4807500000000  0.4461620000000 1.0
C      1  0.5200540000000  0.5008320000000  0.4461330000000 1.0
C      1  0.5022190000000  0.4442810000000  0.5186140000000 1.0
C      1  0.4445360000000  0.5194940000000  0.5021170000000 1.0
C      1  0.4802710000000  0.4999860000000  0.5540600000000 1.0
C      1  0.4823270000000  0.4987820000000  0.4460600000000 1.0
C      1  0.5197200000000  0.4994290000000  0.5539290000000 1.0
C      1  0.4975040000000  0.4449260000000  0.4812000000000 1.0
C      1  0.4975560000000  0.5550900000000  0.5187550000000 1.0
C      1  0.5001320000000  0.5553780000000  0.4806680000000 1.0
C      1  0.5566600000000  0.5182690000000  0.4990640000000 1.0
C      1  0.5566430000000  0.4819120000000  0.5015010000000 1.0
C      1  0.4439110000000  0.4854800000000  0.4970750000000 1.0
C      1  0.4714260000000  0.5405740000000  0.4341020000000 1.0
C      1  0.4338160000000  0.4697220000000  0.5405270000000 1.0
C      1  0.5466550000000  0.4352590000000  0.4793700000000 1.0
C      1  0.5190790000000  0.5454440000000  0.5644030000000 1.0
C      1  0.4811900000000  0.4539280000000  0.5639940000000 1.0
C      1  0.5186480000000  0.4552080000000  0.4362570000000 1.0
C      1  0.5655980000000  0.4730930000000  0.4590780000000 1.0
C      1  0.4341830000000  0.5230540000000  0.4541220000000 1.0
C      1  0.5666940000000  0.5288470000000  0.5405490000000 1.0
C      1  0.4538730000000  0.4342850000000  0.5202950000000 1.0
C      1  0.5465520000000  0.5654200000000  0.5210340000000 1.0
C      1  0.4548490000000  0.5644470000000  0.4814180000000 1.0
C      1  0.4343000000000  0.5427740000000  0.4729330000000 1.0
C      1  0.5454240000000  0.4819150000000  0.4363520000000 1.0
C      1  0.4730280000000  0.4338480000000  0.5411950000000 1.0
C      1  0.5649780000000  0.5476630000000  0.5208540000000 1.0
C      1  0.5648880000000  0.4533880000000  0.4795250000000 1.0
C      1  0.4345370000000  0.4520640000000  0.5216070000000 1.0
C      1  0.4540480000000  0.4807760000000  0.5633010000000 1.0
C      1  0.4532100000000  0.5216560000000  0.4352270000000 1.0
C      1  0.5460800000000  0.5187320000000  0.5638580000000 1.0
C      1  0.5272050000000  0.4349820000000  0.4587180000000 1.0
C      1  0.5274720000000  0.5657420000000  0.5420710000000 1.0
C      1  0.4811390000000  0.5651020000000  0.4546850000000 1.0
C      1  0.4679210000000  0.5412460000000  0.4785120000000 1.0
C      1  0.4786420000000  0.4676230000000  0.5410820000000 1.0
C      1  0.5435600000000  0.4819870000000  0.4699510000000 1.0
C      1  0.5280910000000  0.5449060000000  0.5187930000000 1.0
C      1  0.4720350000000  0.4553680000000  0.5187870000000 1.0
C      1  0.5278140000000  0.4556310000000  0.4817170000000 1.0
C      1  0.5209290000000  0.4686680000000  0.4593680000000 1.0
C      1  0.4817470000000  0.5319730000000  0.4563860000000 1.0
C      1  0.5215640000000  0.5319790000000  0.5413840000000 1.0
C      1  0.4555990000000  0.4804510000000  0.5300050000000 1.0
C      1  0.5442070000000  0.5186760000000  0.5306010000000 1.0
C      1  0.4545030000000  0.5174910000000  0.4721150000000 1.0
C      1  0.4790480000000  0.5421640000000  0.4679080000000 1.0
C      1  0.5446800000000  0.4723310000000  0.4818260000000 1.0
C      1  0.4673530000000  0.4782290000000  0.5407680000000 1.0
C      1  0.5187720000000  0.5436430000000  0.5308740000000 1.0
C      1  0.5182680000000  0.4569920000000  0.4698100000000 1.0
C      1  0.4816790000000  0.4562210000000  0.5305160000000 1.0
C      1  0.4544680000000  0.4715740000000  0.5172380000000 1.0
C      1  0.4559050000000  0.5303100000000  0.4810720000000 1.0
C      1  0.5450080000000  0.5282600000000  0.5187030000000 1.0
C      1  0.5319030000000  0.4794680000000  0.4594050000000 1.0
C      1  0.5325020000000  0.5210990000000  0.5412580000000 1.0
C      1  0.4715510000000  0.5207060000000  0.4554160000000 1.0
C      1  0.4900780000000  0.4783940000000  0.5435610000000 1.0
C      1  0.5447350000000  0.4934870000000  0.4806720000000 1.0
C      1  0.4784480000000  0.5442660000000  0.4904270000000 1.0
C      1  0.5094910000000  0.4794700000000  0.4568660000000 1.0
C      1  0.4927570000000  0.5207240000000  0.4563990000000 1.0
C      1  0.5100270000000  0.5212340000000  0.5438200000000 1.0
C      1  0.4549130000000  0.4928770000000  0.5202840000000 1.0
C      1  0.5449520000000  0.5069800000000  0.5199950000000 1.0
C      1  0.4544280000000  0.5073990000000  0.4835740000000 1.0
C      1  0.5169930000000  0.5464030000000  0.5087200000000 1.0
C      1  0.4829620000000  0.4536860000000  0.5082800000000 1.0
C      1  0.5166550000000  0.4539770000000  0.4918700000000 1.0
C      1  0.5463290000000  0.4833890000000  0.4921050000000 1.0
C      1  0.4783300000000  0.4898410000000  0.5436310000000 1.0
C      1  0.4902550000000  0.5446720000000  0.4791770000000 1.0
C      1  0.4533420000000  0.4837510000000  0.5081180000000 1.0
C      1  0.4555250000000  0.5199500000000  0.4928700000000 1.0
C      1  0.5464130000000  0.5170360000000  0.5085120000000 1.0
C      1  0.5212380000000  0.4909310000000  0.4568770000000 1.0
C      1  0.5216370000000  0.5096810000000  0.5436580000000 1.0
C      1  0.4821560000000  0.5094370000000  0.4551290000000 1.0
C      1  0.5070810000000  0.5446390000000  0.5204630000000 1.0
C      1  0.5066080000000  0.4558730000000  0.4803760000000 1.0
C      1  0.4931300000000  0.4551990000000  0.5196840000000 1.0
C      1  0.5151390000000  0.5374960000000  0.4749060000000 1.0
C      1  0.4739090000000  0.5150630000000  0.5370950000000 1.0
C      1  0.5372610000000  0.4738260000000  0.5137470000000 1.0
C      1  0.4843440000000  0.5370630000000  0.5260600000000 1.0
C      1  0.5157250000000  0.4628710000000  0.5252770000000 1.0
C      1  0.4839460000000  0.4637240000000  0.4749160000000 1.0
C      1  0.5265160000000  0.5156560000000  0.4640020000000 1.0
C      1  0.4734060000000  0.4862690000000  0.4641120000000 1.0
C      1  0.5262220000000  0.4845910000000  0.5364660000000 1.0
C      1  0.4625430000000  0.4741670000000  0.4867570000000 1.0
C      1  0.5371750000000  0.5266280000000  0.4866800000000 1.0
C      1  0.4628520000000  0.5263480000000  0.5155130000000 1.0
C      1  0.4734510000000  0.5373020000000  0.5150820000000 1.0
C      1  0.5371670000000  0.5160510000000  0.4751640000000 1.0
C      1  0.5152830000000  0.4736340000000  0.5364380000000 1.0
C      1  0.5258290000000  0.5375480000000  0.4865870000000 1.0
C      1  0.5262110000000  0.4627890000000  0.5136660000000 1.0
C      1  0.4734860000000  0.4631490000000  0.4865070000000 1.0
C      1  0.4628430000000  0.5155370000000  0.5264900000000 1.0
C      1  0.4627630000000  0.4852000000000  0.4753910000000 1.0
C      1  0.5370890000000  0.4842780000000  0.5254170000000 1.0
C      1  0.4843850000000  0.4749120000000  0.4640190000000 1.0
C      1  0.4848270000000  0.5260720000000  0.5369700000000 1.0
C      1  0.5155890000000  0.5265090000000  0.4640660000000 1.0
C      1  0.4505680000000  0.4413290000000  0.4752730000000 1.0
C      1  0.4744120000000  0.4519610000000  0.4412850000000 1.0
C      1  0.4407950000000  0.4759090000000  0.4518870000000 1.0
C      1  0.5489900000000  0.4406270000000  0.5248230000000 1.0
C      1  0.4509220000000  0.5597360000000  0.5257410000000 1.0
C      1  0.5488540000000  0.5594710000000  0.4758240000000 1.0
C      1  0.5251950000000  0.4508970000000  0.5587340000000 1.0
C      1  0.4750040000000  0.5486550000000  0.5591610000000 1.0
C      1  0.5257560000000  0.5494500000000  0.4419450000000 1.0
C      1  0.5591460000000  0.4743910000000  0.5488600000000 1.0
C      1  0.4406110000000  0.5254920000000  0.5494620000000 1.0
C      1  0.5592920000000  0.5257710000000  0.4517280000000 1.0
C      1  0.4744490000000  0.4416080000000  0.4512560000000 1.0
C      1  0.4405800000000  0.4515990000000  0.4755540000000 1.0
C      1  0.4509460000000  0.4761040000000  0.4417630000000 1.0
C      1  0.5251510000000  0.4406540000000  0.5486320000000 1.0
C      1  0.5255100000000  0.5596870000000  0.4519990000000 1.0
C      1  0.4750670000000  0.5589440000000  0.5490910000000 1.0
C      1  0.5591310000000  0.4507420000000  0.5248960000000 1.0
C      1  0.5591080000000  0.5494400000000  0.4758360000000 1.0
C      1  0.4408030000000  0.5495260000000  0.5255590000000 1.0
C      1  0.5488130000000  0.4743720000000  0.5588460000000 1.0
C      1  0.5491850000000  0.5259840000000  0.4414690000000 1.0
C      1  0.4511630000000  0.5253620000000  0.5592670000000 1.0
C      1  0.4713770000000  0.5799740000000  0.4718260000000 1.0
C      1  0.4708200000000  0.4707630000000  0.5785490000000 1.0
C      1  0.5293060000000  0.4185890000000  0.4722460000000 1.0
C      1  0.4742270000000  0.5302120000000  0.4246010000000 1.0
C      1  0.4232350000000  0.4712940000000  0.5310390000000 1.0
C      1  0.4167280000000  0.5288600000000  0.4705450000000 1.0
C      1  0.5284460000000  0.4722160000000  0.4213410000000 1.0
C      1  0.5814940000000  0.4708300000000  0.4726480000000 1.0
C      1  0.5295190000000  0.5826260000000  0.5280230000000 1.0
C      1  0.4712020000000  0.4171770000000  0.5266800000000 1.0
C      1  0.5291950000000  0.5285590000000  0.5790250000000 1.0
C      1  0.5774510000000  0.5299120000000  0.5302670000000 1.0
C      1  0.4680330000000  0.5139450000000  0.4677820000000 1.0
C      1  0.5309860000000  0.4692270000000  0.4888730000000 1.0
C      1  0.4684530000000  0.4687620000000  0.5113990000000 1.0
C      1  0.5312750000000  0.5312740000000  0.5117530000000 1.0
END
