TITL C-3151192-8964-113 0.0448100887349605 1000000 -3706.82756117436 0 0 520 (Cs) n - 1
REM
REM in /scratch/bkarasulu/Only-C240/Try4-Only-SYMOP24
REM
REM
REM
REM
REM
REM ./C.cell (018bbde761a0794ceee8127bb1f748ef)
REM
REM compiler GCC version 9.2.1 20190827 (Red Hat 9.2.1-1)
REM options -cpp -mtune=generic -march=x86-64 -g -O0 -fpre-include=/usr/include/finclude/math-vector-fortran.h
REM seed 600392620 -1988691573 1730190010 2029132365 -1553165318 515120115 780972188 109968177 1864826588 -1107290268 1023799438 -1138927575 -1926280724 -2011450994 1142376956 -926844862 -1998684484 538779479 -1953571886 1397142857 409977260 1355002998 -1919208518 -1074846600 -388639381 613304624 -134380204 -574055827 -1155839736 659142026 2012722641 637817621 -403960903
REM
CELL 1.54180  100.00000  100.00000  100.00000   90.00000   90.00000   90.00000
LATT -1
SFAC C  
C      1  0.5699730000000  0.4463720000000  0.4982500000000 1.0
C      1  0.4463490000000  0.4981290000000  0.5701210000000 1.0
C      1  0.4980970000000  0.5699890000000  0.4464750000000 1.0
C      1  0.4293440000000  0.4461930000000  0.5021280000000 1.0
C      1  0.4292280000000  0.5535080000000  0.4978750000000 1.0
C      1  0.5706000000000  0.5538970000000  0.5023360000000 1.0
C      1  0.5535010000000  0.4977600000000  0.4293690000000 1.0
C      1  0.5537890000000  0.5023070000000  0.5707520000000 1.0
C      1  0.4461830000000  0.5019920000000  0.4294760000000 1.0
C      1  0.5022020000000  0.5706900000000  0.5539400000000 1.0
C      1  0.5019920000000  0.4293490000000  0.4463230000000 1.0
C      1  0.4977500000000  0.4292510000000  0.5536380000000 1.0
C      1  0.4981140000000  0.4463730000000  0.5701090000000 1.0
C      1  0.5699860000000  0.4981270000000  0.4464840000000 1.0
C      1  0.4463420000000  0.5699910000000  0.4982310000000 1.0
C      1  0.5019920000000  0.4461910000000  0.4294800000000 1.0
C      1  0.4977410000000  0.5535070000000  0.4293620000000 1.0
C      1  0.5022030000000  0.5538990000000  0.5707340000000 1.0
C      1  0.4292340000000  0.4977630000000  0.5536370000000 1.0
C      1  0.5706170000000  0.5023070000000  0.5539240000000 1.0
C      1  0.4293410000000  0.5019920000000  0.4463180000000 1.0
C      1  0.5538060000000  0.5706890000000  0.5023360000000 1.0
C      1  0.4461870000000  0.4293500000000  0.5021280000000 1.0
C      1  0.5535020000000  0.4292490000000  0.4978860000000 1.0
C      1  0.4865080000000  0.5235320000000  0.4643830000000 1.0
C      1  0.5235230000000  0.4642630000000  0.4866410000000 1.0
C      1  0.4642470000000  0.4865230000000  0.5236530000000 1.0
C      1  0.5133070000000  0.5242910000000  0.5353400000000 1.0
C      1  0.5126020000000  0.4756480000000  0.4646950000000 1.0
C      1  0.4855390000000  0.4747420000000  0.5339550000000 1.0
C      1  0.4756330000000  0.4645730000000  0.5127400000000 1.0
C      1  0.4747240000000  0.5338280000000  0.4856730000000 1.0
C      1  0.5243480000000  0.5351140000000  0.5134580000000 1.0
C      1  0.5338170000000  0.4855530000000  0.4748560000000 1.0
C      1  0.5351080000000  0.5131540000000  0.5243270000000 1.0
C      1  0.4645590000000  0.5126150000000  0.4757700000000 1.0
C      1  0.4642490000000  0.5235330000000  0.4866430000000 1.0
C      1  0.4865060000000  0.4642640000000  0.5236590000000 1.0
C      1  0.5235180000000  0.4865220000000  0.4643820000000 1.0
C      1  0.5352060000000  0.5242900000000  0.5134420000000 1.0
C      1  0.4645590000000  0.4756490000000  0.5127380000000 1.0
C      1  0.5338200000000  0.4747410000000  0.4856750000000 1.0
C      1  0.5126040000000  0.4645720000000  0.4757690000000 1.0
C      1  0.4855380000000  0.5338280000000  0.4748590000000 1.0
C      1  0.5133230000000  0.5351140000000  0.5244820000000 1.0
C      1  0.4747210000000  0.4855540000000  0.5339520000000 1.0
C      1  0.5241930000000  0.5131540000000  0.5352430000000 1.0
C      1  0.4756350000000  0.5126150000000  0.4646940000000 1.0
C      1  0.5230170000000  0.4404100000000  0.5332950000000 1.0
C      1  0.4403900000000  0.5331700000000  0.5231470000000 1.0
C      1  0.5331550000000  0.5230290000000  0.4405250000000 1.0
C      1  0.4766510000000  0.4407290000000  0.4666250000000 1.0
C      1  0.4767340000000  0.5592250000000  0.5338810000000 1.0
C      1  0.5237520000000  0.5590870000000  0.4664910000000 1.0
C      1  0.5591870000000  0.5337800000000  0.4768300000000 1.0
C      1  0.5590540000000  0.4663970000000  0.5239050000000 1.0
C      1  0.4407270000000  0.4664960000000  0.4767870000000 1.0
C      1  0.4663420000000  0.5237720000000  0.5592100000000 1.0
C      1  0.4664890000000  0.4766570000000  0.4408620000000 1.0
C      1  0.5337660000000  0.4767820000000  0.5593210000000 1.0
C      1  0.5331580000000  0.4404100000000  0.5231540000000 1.0
C      1  0.5230130000000  0.5331680000000  0.4405250000000 1.0
C      1  0.4403900000000  0.5230310000000  0.5332890000000 1.0
C      1  0.4664890000000  0.4407300000000  0.4767880000000 1.0
C      1  0.5337470000000  0.5592230000000  0.4768670000000 1.0
C      1  0.4663570000000  0.5590890000000  0.5238860000000 1.0
C      1  0.4766960000000  0.5337820000000  0.5593210000000 1.0
C      1  0.5237690000000  0.4663970000000  0.5591900000000 1.0
C      1  0.4766520000000  0.4664960000000  0.4408630000000 1.0
C      1  0.5590750000000  0.5237700000000  0.4664760000000 1.0
C      1  0.4407270000000  0.4766580000000  0.4666240000000 1.0
C      1  0.5591850000000  0.4767810000000  0.5339020000000 1.0
C      1  0.5549170000000  0.5160110000000  0.5652730000000 1.0
C      1  0.5159670000000  0.5651200000000  0.5550580000000 1.0
C      1  0.5651060000000  0.5551070000000  0.5160830000000 1.0
C      1  0.4449580000000  0.5157250000000  0.4348800000000 1.0
C      1  0.4452690000000  0.4842780000000  0.5647300000000 1.0
C      1  0.5547900000000  0.4840660000000  0.4350010000000 1.0
C      1  0.4842490000000  0.5645970000000  0.4453930000000 1.0
C      1  0.4840540000000  0.4348800000000  0.5549260000000 1.0
C      1  0.5157240000000  0.4347560000000  0.4451000000000 1.0
C      1  0.4348560000000  0.5547940000000  0.4841780000000 1.0
C      1  0.4347500000000  0.4449700000000  0.5158610000000 1.0
C      1  0.5645900000000  0.4452860000000  0.4843980000000 1.0
C      1  0.5651390000000  0.5160100000000  0.5550510000000 1.0
C      1  0.5549240000000  0.5651190000000  0.5161000000000 1.0
C      1  0.5159490000000  0.5551080000000  0.5652400000000 1.0
C      1  0.4347450000000  0.5157250000000  0.4450930000000 1.0
C      1  0.5645950000000  0.4842750000000  0.4454040000000 1.0
C      1  0.4348660000000  0.4840680000000  0.5549250000000 1.0
C      1  0.4452600000000  0.5645980000000  0.4843830000000 1.0
C      1  0.5547890000000  0.4348790000000  0.4841900000000 1.0
C      1  0.4449630000000  0.4347570000000  0.5158610000000 1.0
C      1  0.4840450000000  0.5547920000000  0.4349900000000 1.0
C      1  0.5157240000000  0.4449690000000  0.4348860000000 1.0
C      1  0.4842620000000  0.4452880000000  0.5647270000000 1.0
C      1  0.4424180000000  0.5169420000000  0.4927250000000 1.0
C      1  0.5169300000000  0.4926040000000  0.4425520000000 1.0
C      1  0.4925940000000  0.4424340000000  0.5170720000000 1.0
C      1  0.5570700000000  0.5172250000000  0.5073550000000 1.0
C      1  0.5494900000000  0.4851040000000  0.4954470000000 1.0
C      1  0.4425920000000  0.4825960000000  0.5072750000000 1.0
C      1  0.4850600000000  0.4953280000000  0.5496280000000 1.0
C      1  0.4825840000000  0.5071490000000  0.4427270000000 1.0
C      1  0.5172850000000  0.5074120000000  0.5571380000000 1.0
C      1  0.5071430000000  0.4426040000000  0.4827220000000 1.0
C      1  0.5072270000000  0.5569780000000  0.5172670000000 1.0
C      1  0.4952930000000  0.5495220000000  0.4851850000000 1.0
C      1  0.4925910000000  0.5169410000000  0.4425520000000 1.0
C      1  0.4424170000000  0.4926060000000  0.5170650000000 1.0
C      1  0.5169360000000  0.4424340000000  0.4927300000000 1.0
C      1  0.5072200000000  0.5172270000000  0.5572040000000 1.0
C      1  0.4953120000000  0.4851050000000  0.5496250000000 1.0
C      1  0.5071400000000  0.4825950000000  0.4427270000000 1.0
C      1  0.5494930000000  0.4953270000000  0.4851950000000 1.0
C      1  0.4425920000000  0.5071500000000  0.4827180000000 1.0
C      1  0.5570030000000  0.5074110000000  0.5174200000000 1.0
C      1  0.4825860000000  0.4426050000000  0.5072790000000 1.0
C      1  0.5171330000000  0.5569780000000  0.5073610000000 1.0
C      1  0.4850510000000  0.5495220000000  0.4954270000000 1.0
C      1  0.4960240000000  0.4247280000000  0.4587290000000 1.0
C      1  0.4247250000000  0.4585980000000  0.4961600000000 1.0
C      1  0.4585890000000  0.4960240000000  0.4248560000000 1.0
C      1  0.5035860000000  0.4245170000000  0.5412050000000 1.0
C      1  0.5041750000000  0.5745510000000  0.4587400000000 1.0
C      1  0.4961750000000  0.5753020000000  0.5415510000000 1.0
C      1  0.5745150000000  0.4586410000000  0.5043280000000 1.0
C      1  0.5751540000000  0.5414470000000  0.4963640000000 1.0
C      1  0.4244980000000  0.5410740000000  0.5037130000000 1.0
C      1  0.5414190000000  0.4962300000000  0.5753390000000 1.0
C      1  0.5410660000000  0.5035940000000  0.4246360000000 1.0
C      1  0.4586070000000  0.5042150000000  0.5746910000000 1.0
C      1  0.4585920000000  0.4247290000000  0.4961610000000 1.0
C      1  0.4960240000000  0.4585970000000  0.4248610000000 1.0
C      1  0.4247210000000  0.4960250000000  0.4587240000000 1.0
C      1  0.5410690000000  0.4245160000000  0.5037230000000 1.0
C      1  0.4586060000000  0.5745520000000  0.5043090000000 1.0
C      1  0.5414180000000  0.5753010000000  0.4963080000000 1.0
C      1  0.5041920000000  0.4586420000000  0.5746510000000 1.0
C      1  0.4962290000000  0.5414490000000  0.5752880000000 1.0
C      1  0.5035780000000  0.5410720000000  0.4246320000000 1.0
C      1  0.5752040000000  0.4962290000000  0.5415540000000 1.0
C      1  0.4245020000000  0.5035970000000  0.5412010000000 1.0
C      1  0.5745560000000  0.5042130000000  0.4587420000000 1.0
C      1  0.5104700000000  0.4997500000000  0.5210310000000 1.0
C      1  0.4997840000000  0.5209580000000  0.5106530000000 1.0
C      1  0.5209510000000  0.5105200000000  0.4999070000000 1.0
C      1  0.4895050000000  0.5000310000000  0.4794000000000 1.0
C      1  0.4893090000000  0.4999560000000  0.5217130000000 1.0
C      1  0.5108850000000  0.5001860000000  0.4794300000000 1.0
C      1  0.4999430000000  0.5215990000000  0.4894650000000 1.0
C      1  0.5001520000000  0.4792990000000  0.5110120000000 1.0
C      1  0.5000050000000  0.4792720000000  0.4896320000000 1.0
C      1  0.4793030000000  0.5109080000000  0.5003020000000 1.0
C      1  0.4792610000000  0.4895210000000  0.5001470000000 1.0
C      1  0.5215540000000  0.4893230000000  0.5000370000000 1.0
C      1  0.5208960000000  0.4997500000000  0.5106050000000 1.0
C      1  0.5105180000000  0.5209580000000  0.4999190000000 1.0
C      1  0.4997720000000  0.5105200000000  0.5210860000000 1.0
C      1  0.4792650000000  0.5000310000000  0.4896400000000 1.0
C      1  0.5215780000000  0.4999550000000  0.4894440000000 1.0
C      1  0.4792950000000  0.5001870000000  0.5110200000000 1.0
C      1  0.4893310000000  0.5215990000000  0.5000780000000 1.0
C      1  0.5108760000000  0.4792990000000  0.5002880000000 1.0
C      1  0.4894960000000  0.4792720000000  0.5001410000000 1.0
C      1  0.5001670000000  0.5109080000000  0.4794380000000 1.0
C      1  0.5000120000000  0.4895210000000  0.4793970000000 1.0
C      1  0.4999020000000  0.4893240000000  0.5216890000000 1.0
C      1  0.5714760000000  0.5183110000000  0.4611420000000 1.0
C      1  0.5182930000000  0.4610480000000  0.5715790000000 1.0
C      1  0.4610090000000  0.5714780000000  0.5184070000000 1.0
C      1  0.4279610000000  0.5175780000000  0.5385970000000 1.0
C      1  0.4282730000000  0.4820680000000  0.4612850000000 1.0
C      1  0.5717220000000  0.4822240000000  0.5391560000000 1.0
C      1  0.4820660000000  0.4611550000000  0.4284100000000 1.0
C      1  0.4822110000000  0.5390080000000  0.5718430000000 1.0
C      1  0.5175600000000  0.5384730000000  0.4280940000000 1.0
C      1  0.5389670000000  0.5717630000000  0.4823340000000 1.0
C      1  0.5384670000000  0.4279800000000  0.5177040000000 1.0
C      1  0.4611510000000  0.4282770000000  0.4822020000000 1.0
C      1  0.4610070000000  0.5183140000000  0.5716110000000 1.0
C      1  0.5714440000000  0.4610470000000  0.5184290000000 1.0
C      1  0.5182730000000  0.5714770000000  0.4611420000000 1.0
C      1  0.5384630000000  0.5175750000000  0.4280960000000 1.0
C      1  0.4611500000000  0.4820670000000  0.4284080000000 1.0
C      1  0.5390200000000  0.4822250000000  0.5718580000000 1.0
C      1  0.4282740000000  0.4611560000000  0.4822010000000 1.0
C      1  0.5717090000000  0.5390060000000  0.4823450000000 1.0
C      1  0.4279600000000  0.5384750000000  0.5176940000000 1.0
C      1  0.4822000000000  0.5717640000000  0.5391000000000 1.0
C      1  0.5175670000000  0.4279800000000  0.5386030000000 1.0
C      1  0.4820660000000  0.4282770000000  0.4612880000000 1.0
C      1  0.4708860000000  0.4166560000000  0.5008590000000 1.0
C      1  0.4166460000000  0.5007230000000  0.4710170000000 1.0
C      1  0.5007210000000  0.4708880000000  0.4167840000000 1.0
C      1  0.5288170000000  0.4163550000000  0.4990060000000 1.0
C      1  0.5290970000000  0.5832900000000  0.5010040000000 1.0
C      1  0.4712930000000  0.5817240000000  0.4994120000000 1.0
C      1  0.5831040000000  0.5009150000000  0.5291820000000 1.0
C      1  0.5817140000000  0.4993200000000  0.4714380000000 1.0
C      1  0.4163400000000  0.4988760000000  0.5289500000000 1.0
C      1  0.4992920000000  0.4713420000000  0.5817930000000 1.0
C      1  0.4988620000000  0.5288190000000  0.4164720000000 1.0
C      1  0.5009090000000  0.5291580000000  0.5833910000000 1.0
C      1  0.5007220000000  0.4166550000000  0.4710230000000 1.0
C      1  0.4708820000000  0.5007210000000  0.4167810000000 1.0
C      1  0.4166480000000  0.4708900000000  0.5008560000000 1.0
C      1  0.4988700000000  0.4163550000000  0.5289540000000 1.0
C      1  0.5008710000000  0.5832910000000  0.5292300000000 1.0
C      1  0.4992780000000  0.5817230000000  0.4714260000000 1.0
C      1  0.5290470000000  0.5009160000000  0.5832390000000 1.0
C      1  0.4713030000000  0.4993220000000  0.5818490000000 1.0
C      1  0.5288150000000  0.4988740000000  0.4164750000000 1.0
C      1  0.5816580000000  0.4713410000000  0.4994280000000 1.0
C      1  0.4163380000000  0.5288210000000  0.4989970000000 1.0
C      1  0.5832560000000  0.5291560000000  0.5010430000000 1.0
C      1  0.5774180000000  0.4651720000000  0.4753140000000 1.0
C      1  0.4651440000000  0.4751990000000  0.5775660000000 1.0
C      1  0.4751650000000  0.5774310000000  0.4652690000000 1.0
C      1  0.4228560000000  0.4654900000000  0.5241340000000 1.0
C      1  0.4225880000000  0.5341890000000  0.4755980000000 1.0
C      1  0.5772540000000  0.5344180000000  0.5245250000000 1.0
C      1  0.5341860000000  0.4754770000000  0.4227310000000 1.0
C      1  0.5343620000000  0.5242290000000  0.5771220000000 1.0
C      1  0.4654760000000  0.5239990000000  0.4229840000000 1.0
C      1  0.5243920000000  0.5774720000000  0.5345880000000 1.0
C      1  0.5239990000000  0.4228630000000  0.4656190000000 1.0
C      1  0.4754710000000  0.4226080000000  0.5343240000000 1.0
C      1  0.4751780000000  0.4651750000000  0.5775540000000 1.0
C      1  0.5774300000000  0.4751970000000  0.4652800000000 1.0
C      1  0.4651360000000  0.5774310000000  0.4752980000000 1.0
C      1  0.5239980000000  0.4654870000000  0.4229920000000 1.0
C      1  0.4754630000000  0.5341880000000  0.4227220000000 1.0
C      1  0.5243910000000  0.5344190000000  0.5773880000000 1.0
C      1  0.4225960000000  0.4754790000000  0.5343220000000 1.0
C      1  0.5769870000000  0.5242280000000  0.5344960000000 1.0
C      1  0.4228500000000  0.5240000000000  0.4656100000000 1.0
C      1  0.5344550000000  0.5774720000000  0.5245250000000 1.0
C      1  0.4654820000000  0.4228650000000  0.5241350000000 1.0
C      1  0.5341870000000  0.4226060000000  0.4756080000000 1.0
C      1  0.4158030000000  0.5144610000000  0.4745280000000 1.0
C      1  0.5144590000000  0.4744020000000  0.4159430000000 1.0
C      1  0.4743990000000  0.4158170000000  0.5145970000000 1.0
C      1  0.5838990000000  0.5146410000000  0.5255380000000 1.0
C      1  0.5817900000000  0.4856660000000  0.4751130000000 1.0
C      1  0.4157140000000  0.4851060000000  0.5254230000000 1.0
C      1  0.4856390000000  0.4750110000000  0.5819070000000 1.0
C      1  0.4850930000000  0.5252890000000  0.4158440000000 1.0
C      1  0.5146690000000  0.5255040000000  0.5840830000000 1.0
C      1  0.5252890000000  0.4157250000000  0.4852370000000 1.0
C      1  0.5254390000000  0.5840430000000  0.5147550000000 1.0
C      1  0.4749660000000  0.5818090000000  0.4857590000000 1.0
C      1  0.4743930000000  0.5144600000000  0.4159380000000 1.0
C      1  0.4158070000000  0.4744040000000  0.5145940000000 1.0
C      1  0.5144600000000  0.4158160000000  0.4745360000000 1.0
C      1  0.5254030000000  0.5146420000000  0.5840330000000 1.0
C      1  0.4749780000000  0.4856680000000  0.5819250000000 1.0
C      1  0.5252870000000  0.4851040000000  0.4158490000000 1.0
C      1  0.5817710000000  0.4750090000000  0.4857750000000 1.0
C      1  0.4157090000000  0.5252910000000  0.4852280000000 1.0
C      1  0.5839480000000  0.5255030000000  0.5148030000000 1.0
C      1  0.4851000000000  0.4157260000000  0.5254260000000 1.0
C      1  0.5146210000000  0.5840430000000  0.5255720000000 1.0
C      1  0.4856250000000  0.5818090000000  0.4750990000000 1.0
C      1  0.4464140000000  0.5255160000000  0.4644690000000 1.0
C      1  0.5255110000000  0.4643480000000  0.4465540000000 1.0
C      1  0.4643390000000  0.4464280000000  0.5256470000000 1.0
C      1  0.5534530000000  0.5258520000000  0.5356910000000 1.0
C      1  0.5552320000000  0.4763760000000  0.4666890000000 1.0
C      1  0.4450000000000  0.4756030000000  0.5349440000000 1.0
C      1  0.4763670000000  0.4665750000000  0.5553660000000 1.0
C      1  0.4755860000000  0.5348160000000  0.4451300000000 1.0
C      1  0.5242720000000  0.5350470000000  0.5550810000000 1.0
C      1  0.5348140000000  0.4450150000000  0.4757250000000 1.0
C      1  0.5345710000000  0.5548890000000  0.5248010000000 1.0
C      1  0.4665430000000  0.5552370000000  0.4764860000000 1.0
C      1  0.4643340000000  0.5255150000000  0.4465480000000 1.0
C      1  0.4464190000000  0.4643500000000  0.5256460000000 1.0
C      1  0.5255110000000  0.4464270000000  0.4644750000000 1.0
C      1  0.5355570000000  0.5258520000000  0.5535880000000 1.0
C      1  0.4665540000000  0.4763780000000  0.5553680000000 1.0
C      1  0.5348090000000  0.4756010000000  0.4451360000000 1.0
C      1  0.5552300000000  0.4665730000000  0.4765030000000 1.0
C      1  0.4449960000000  0.5348160000000  0.4757200000000 1.0
C      1  0.5549470000000  0.5350460000000  0.5244070000000 1.0
C      1  0.4755890000000  0.4450160000000  0.5349500000000 1.0
C      1  0.5246670000000  0.5548890000000  0.5347050000000 1.0
C      1  0.4763520000000  0.5552360000000  0.4666770000000 1.0
C      1  0.4125540000000  0.5110200000000  0.5217930000000 1.0
C      1  0.5110080000000  0.5216650000000  0.4126890000000 1.0
C      1  0.5216630000000  0.4125690000000  0.5111520000000 1.0
C      1  0.5864080000000  0.5114160000000  0.4784160000000 1.0
C      1  0.5868620000000  0.4887790000000  0.5221610000000 1.0
C      1  0.4128980000000  0.4885930000000  0.4781380000000 1.0
C      1  0.4887540000000  0.5221130000000  0.5871090000000 1.0
C      1  0.4885900000000  0.4780070000000  0.4130340000000 1.0
C      1  0.5113750000000  0.4783280000000  0.5864680000000 1.0
C      1  0.4780060000000  0.4129060000000  0.4887290000000 1.0
C      1  0.4782600000000  0.5864340000000  0.5114990000000 1.0
C      1  0.5220440000000  0.5870150000000  0.4888510000000 1.0
C      1  0.5216590000000  0.5110180000000  0.4126890000000 1.0
C      1  0.4125540000000  0.5216670000000  0.5111430000000 1.0
C      1  0.5110150000000  0.4125690000000  0.5218000000000 1.0
C      1  0.4782810000000  0.5114180000000  0.5865420000000 1.0
C      1  0.5220250000000  0.4887810000000  0.5869980000000 1.0
C      1  0.4780030000000  0.4885920000000  0.4130330000000 1.0
C      1  0.5869740000000  0.5221110000000  0.4888890000000 1.0
C      1  0.4128990000000  0.4780080000000  0.4887260000000 1.0
C      1  0.5863320000000  0.4783260000000  0.5115100000000 1.0
C      1  0.4885930000000  0.4129050000000  0.4781430000000 1.0
C      1  0.5113660000000  0.5864340000000  0.4783930000000 1.0
C      1  0.4887180000000  0.5870160000000  0.5221770000000 1.0
C      1  0.4994500000000  0.4665530000000  0.4827550000000 1.0
C      1  0.4665430000000  0.4826400000000  0.4995880000000 1.0
C      1  0.4826270000000  0.4994670000000  0.4666790000000 1.0
C      1  0.5002420000000  0.4664180000000  0.5173380000000 1.0
C      1  0.4998090000000  0.5345250000000  0.4824060000000 1.0
C      1  0.4996490000000  0.5334410000000  0.5177070000000 1.0
C      1  0.5344980000000  0.4822890000000  0.4999360000000 1.0
C      1  0.5334840000000  0.5175190000000  0.4997920000000 1.0
C      1  0.4664130000000  0.5172230000000  0.5003820000000 1.0
C      1  0.5174650000000  0.4995820000000  0.5335540000000 1.0
C      1  0.5172020000000  0.5002640000000  0.4665410000000 1.0
C      1  0.4822590000000  0.4998240000000  0.5346400000000 1.0
C      1  0.4826190000000  0.4665530000000  0.4995860000000 1.0
C      1  0.4994530000000  0.4826390000000  0.4666780000000 1.0
C      1  0.4665440000000  0.4994670000000  0.4827620000000 1.0
C      1  0.5172020000000  0.4664180000000  0.5003770000000 1.0
C      1  0.4822720000000  0.5345250000000  0.4999430000000 1.0
C      1  0.5175730000000  0.5334400000000  0.4997840000000 1.0
C      1  0.4998010000000  0.4822890000000  0.5346330000000 1.0
C      1  0.4996570000000  0.5175200000000  0.5336190000000 1.0
C      1  0.5002480000000  0.5172220000000  0.4665480000000 1.0
C      1  0.5334190000000  0.4995820000000  0.5176000000000 1.0
C      1  0.4664060000000  0.5002650000000  0.5173370000000 1.0
C      1  0.5345050000000  0.4998230000000  0.4823940000000 1.0
C      1  0.4877010000000  0.4498130000000  0.4702400000000 1.0
C      1  0.4498060000000  0.4701160000000  0.4878380000000 1.0
C      1  0.4701060000000  0.4877100000000  0.4499410000000 1.0
C      1  0.5120200000000  0.4495770000000  0.5297060000000 1.0
C      1  0.5126120000000  0.5501170000000  0.4699420000000 1.0
C      1  0.4878710000000  0.5501810000000  0.5302710000000 1.0
C      1  0.5500980000000  0.4698460000000  0.5127590000000 1.0
C      1  0.5501340000000  0.5301820000000  0.4879580000000 1.0
C      1  0.4495590000000  0.5295800000000  0.5121520000000 1.0
C      1  0.5301320000000  0.4879190000000  0.5502960000000 1.0
C      1  0.5295650000000  0.5120330000000  0.4496930000000 1.0
C      1  0.4698020000000  0.5126260000000  0.5502460000000 1.0
C      1  0.4701040000000  0.4498130000000  0.4878370000000 1.0
C      1  0.4877020000000  0.4701150000000  0.4499420000000 1.0
C      1  0.4498060000000  0.4877110000000  0.4702410000000 1.0
C      1  0.5295690000000  0.4495760000000  0.5121560000000 1.0
C      1  0.4698080000000  0.5501180000000  0.5127460000000 1.0
C      1  0.5301380000000  0.5501800000000  0.4880040000000 1.0
C      1  0.5126230000000  0.4698470000000  0.5502340000000 1.0
C      1  0.4878240000000  0.5301830000000  0.5502680000000 1.0
C      1  0.5120180000000  0.5295790000000  0.4496930000000 1.0
C      1  0.5501610000000  0.4879190000000  0.5302670000000 1.0
C      1  0.4495580000000  0.5120350000000  0.5297000000000 1.0
C      1  0.5501120000000  0.5126250000000  0.4699370000000 1.0
C      1  0.5661970000000  0.5435140000000  0.5240370000000 1.0
C      1  0.5434800000000  0.5240570000000  0.5662830000000 1.0
C      1  0.5239260000000  0.5662030000000  0.5434620000000 1.0
C      1  0.4336790000000  0.5432490000000  0.4761500000000 1.0
C      1  0.4337390000000  0.4564080000000  0.5239240000000 1.0
C      1  0.5658450000000  0.4568740000000  0.4764560000000 1.0
C      1  0.4563940000000  0.5237900000000  0.4338680000000 1.0
C      1  0.4568560000000  0.4763360000000  0.5659850000000 1.0
C      1  0.5432460000000  0.4760330000000  0.4338230000000 1.0
C      1  0.4763070000000  0.5658520000000  0.4569800000000 1.0
C      1  0.4760230000000  0.4337000000000  0.5433830000000 1.0
C      1  0.5237890000000  0.4337460000000  0.4565360000000 1.0
C      1  0.5239030000000  0.5435150000000  0.5663310000000 1.0
C      1  0.5661490000000  0.5240570000000  0.5436140000000 1.0
C      1  0.5433280000000  0.5662030000000  0.5240600000000 1.0
C      1  0.4760160000000  0.5432480000000  0.4338140000000 1.0
C      1  0.5237880000000  0.4564060000000  0.4338750000000 1.0
C      1  0.4763200000000  0.4568760000000  0.5659810000000 1.0
C      1  0.4337330000000  0.5237900000000  0.4565290000000 1.0
C      1  0.5658500000000  0.4763340000000  0.4569920000000 1.0
C      1  0.4336880000000  0.4760360000000  0.5433820000000 1.0
C      1  0.4568460000000  0.5658530000000  0.4764410000000 1.0
C      1  0.5432460000000  0.4336990000000  0.4761590000000 1.0
C      1  0.4564000000000  0.4337470000000  0.5239250000000 1.0
C      1  0.4752550000000  0.4861030000000  0.4643940000000 1.0
C      1  0.4860880000000  0.4642650000000  0.4753870000000 1.0
C      1  0.4642570000000  0.4752650000000  0.4862260000000 1.0
C      1  0.5247080000000  0.4860420000000  0.5358610000000 1.0
C      1  0.5245790000000  0.5136320000000  0.4642040000000 1.0
C      1  0.4749560000000  0.5137210000000  0.5358400000000 1.0
C      1  0.5136100000000  0.4640830000000  0.5247090000000 1.0
C      1  0.5137060000000  0.5357160000000  0.4750950000000 1.0
C      1  0.4860470000000  0.5357450000000  0.5248590000000 1.0
C      1  0.5356920000000  0.4749750000000  0.5138370000000 1.0
C      1  0.5357450000000  0.5247250000000  0.4861850000000 1.0
C      1  0.4640710000000  0.5245950000000  0.5137500000000 1.0
C      1  0.4642580000000  0.4861030000000  0.4753910000000 1.0
C      1  0.4752510000000  0.4642650000000  0.4862240000000 1.0
C      1  0.4860910000000  0.4752650000000  0.4643930000000 1.0
C      1  0.5357260000000  0.4860420000000  0.5248440000000 1.0
C      1  0.4640700000000  0.5136330000000  0.5247130000000 1.0
C      1  0.5357050000000  0.5137200000000  0.4750910000000 1.0
C      1  0.5245730000000  0.4640830000000  0.5137460000000 1.0
C      1  0.4749610000000  0.5357170000000  0.5138400000000 1.0
C      1  0.5247250000000  0.5357440000000  0.4861820000000 1.0
C      1  0.5137020000000  0.4749750000000  0.5358270000000 1.0
C      1  0.4860500000000  0.5247260000000  0.5358800000000 1.0
C      1  0.5136160000000  0.5245940000000  0.4642060000000 1.0
C      1  0.5173290000000  0.4932860000000  0.5575780000000 1.0
C      1  0.4931970000000  0.5574770000000  0.5174460000000 1.0
C      1  0.5574670000000  0.5173320000000  0.4933230000000 1.0
C      1  0.4831850000000  0.4930760000000  0.4426260000000 1.0
C      1  0.4833930000000  0.5074780000000  0.5568990000000 1.0
C      1  0.5164500000000  0.5066000000000  0.4424480000000 1.0
C      1  0.5074530000000  0.5567830000000  0.4835280000000 1.0
C      1  0.5065890000000  0.4423290000000  0.5165910000000 1.0
C      1  0.4930690000000  0.4425000000000  0.4833230000000 1.0
C      1  0.4423160000000  0.5164640000000  0.5067200000000 1.0
C      1  0.4424900000000  0.4831960000000  0.4932020000000 1.0
C      1  0.5567450000000  0.4834790000000  0.5076150000000 1.0
C      1  0.5574430000000  0.4932850000000  0.5174640000000 1.0
C      1  0.5173120000000  0.5574760000000  0.4933310000000 1.0
C      1  0.4931880000000  0.5173330000000  0.5576010000000 1.0
C      1  0.4424900000000  0.4930770000000  0.4833200000000 1.0
C      1  0.5567640000000  0.5074760000000  0.4835280000000 1.0
C      1  0.4423140000000  0.5066010000000  0.5165850000000 1.0
C      1  0.4833940000000  0.5567830000000  0.5075870000000 1.0
C      1  0.5164550000000  0.4423290000000  0.5067260000000 1.0
C      1  0.4831870000000  0.4425000000000  0.4932060000000 1.0
C      1  0.5065860000000  0.5164630000000  0.4424510000000 1.0
C      1  0.4930670000000  0.4831950000000  0.4426260000000 1.0
C      1  0.5074800000000  0.4834800000000  0.5568800000000 1.0
C      1  0.5826830000000  0.4684510000000  0.5221290000000 1.0
C      1  0.4684390000000  0.5220230000000  0.5828330000000 1.0
C      1  0.5219720000000  0.5827230000000  0.4685390000000 1.0
C      1  0.4170820000000  0.4682860000000  0.4781310000000 1.0
C      1  0.4167600000000  0.5313320000000  0.5217210000000 1.0
C      1  0.5828980000000  0.5318390000000  0.4782830000000 1.0
C      1  0.5313200000000  0.5215990000000  0.4168940000000 1.0
C      1  0.5318000000000  0.4781530000000  0.5830150000000 1.0
C      1  0.4682820000000  0.4779970000000  0.4172170000000 1.0
C      1  0.4781130000000  0.5829380000000  0.5319160000000 1.0
C      1  0.4779970000000  0.4170860000000  0.4684210000000 1.0
C      1  0.5215940000000  0.4167780000000  0.5314630000000 1.0
C      1  0.5219930000000  0.4684520000000  0.5828180000000 1.0
C      1  0.5826980000000  0.5220200000000  0.4685730000000 1.0
C      1  0.4684060000000  0.5827240000000  0.5221050000000 1.0
C      1  0.4779950000000  0.4682850000000  0.4172180000000 1.0
C      1  0.5215860000000  0.5313290000000  0.4168940000000 1.0
C      1  0.4781480000000  0.5318410000000  0.5830330000000 1.0
C      1  0.4167600000000  0.5216010000000  0.5314540000000 1.0
C      1  0.5828790000000  0.4781520000000  0.5319360000000 1.0
C      1  0.4170820000000  0.4779980000000  0.4684180000000 1.0
C      1  0.5317830000000  0.5829370000000  0.4782460000000 1.0
C      1  0.4682840000000  0.4170860000000  0.4781340000000 1.0
C      1  0.5313260000000  0.4167780000000  0.5217310000000 1.0
C      1  0.5494290000000  0.5298020000000  0.5119710000000 1.0
C      1  0.5295870000000  0.5118340000000  0.5493820000000 1.0
C      1  0.5119420000000  0.5492840000000  0.5298480000000 1.0
C      1  0.4502660000000  0.5294040000000  0.4882540000000 1.0
C      1  0.4504730000000  0.4702730000000  0.5115440000000 1.0
C      1  0.5482850000000  0.4705060000000  0.4884370000000 1.0
C      1  0.4702600000000  0.5114170000000  0.4506070000000 1.0
C      1  0.4704710000000  0.4883070000000  0.5484120000000 1.0
C      1  0.5293910000000  0.4881350000000  0.4504010000000 1.0
C      1  0.4882870000000  0.5482890000000  0.4706030000000 1.0
C      1  0.4881230000000  0.4502870000000  0.5295360000000 1.0
C      1  0.5114100000000  0.4504840000000  0.4703970000000 1.0
C      1  0.5118360000000  0.5298030000000  0.5495630000000 1.0
C      1  0.5492470000000  0.5118340000000  0.5297220000000 1.0
C      1  0.5297140000000  0.5492840000000  0.5120760000000 1.0
C      1  0.4881200000000  0.5294030000000  0.4504010000000 1.0
C      1  0.5114080000000  0.4702720000000  0.4506080000000 1.0
C      1  0.4883020000000  0.4705070000000  0.5484210000000 1.0
C      1  0.4504720000000  0.5114180000000  0.4703950000000 1.0
C      1  0.5482770000000  0.4883050000000  0.4706060000000 1.0
C      1  0.4502660000000  0.4881370000000  0.5295260000000 1.0
C      1  0.4704690000000  0.5482900000000  0.4884210000000 1.0
C      1  0.5294000000000  0.4502860000000  0.4882590000000 1.0
C      1  0.4702610000000  0.4504840000000  0.5115460000000 1.0
C      1  0.5002680000000  0.4515940000000  0.5381790000000 1.0
C      1  0.4515660000000  0.5380490000000  0.5003960000000 1.0
C      1  0.5380340000000  0.5002770000000  0.4517000000000 1.0
C      1  0.4994800000000  0.4515520000000  0.4616710000000 1.0
C      1  0.4998310000000  0.5483730000000  0.5385740000000 1.0
C      1  0.5004310000000  0.5479650000000  0.4617160000000 1.0
C      1  0.5483600000000  0.5385200000000  0.4999160000000 1.0
C      1  0.5479600000000  0.4616190000000  0.5005770000000 1.0
C      1  0.4515430000000  0.4615460000000  0.4996160000000 1.0
C      1  0.4615800000000  0.5004470000000  0.5480880000000 1.0
C      1  0.4615350000000  0.4994870000000  0.4516780000000 1.0
C      1  0.5384250000000  0.4999110000000  0.5484970000000 1.0
C      1  0.5380430000000  0.4515940000000  0.5004040000000 1.0
C      1  0.5002620000000  0.5380480000000  0.4517000000000 1.0
C      1  0.4515650000000  0.5002790000000  0.5381690000000 1.0
C      1  0.4615350000000  0.4515530000000  0.4996160000000 1.0
C      1  0.5384400000000  0.5483720000000  0.4999650000000 1.0
C      1  0.4615820000000  0.5479660000000  0.5005650000000 1.0
C      1  0.4997820000000  0.5385210000000  0.5484940000000 1.0
C      1  0.5004410000000  0.4616200000000  0.5480960000000 1.0
C      1  0.4994800000000  0.4615450000000  0.4516790000000 1.0
C      1  0.5479530000000  0.5004450000000  0.4617150000000 1.0
C      1  0.4515430000000  0.4994870000000  0.4616700000000 1.0
C      1  0.5483620000000  0.4999100000000  0.5385600000000 1.0
C      1  0.5049390000000  0.4358780000000  0.5637410000000 1.0
C      1  0.4358500000000  0.5636180000000  0.5050590000000 1.0
C      1  0.5636100000000  0.5049480000000  0.4359890000000 1.0
C      1  0.4951960000000  0.5641670000000  0.5641930000000 1.0
C      1  0.5049250000000  0.5636160000000  0.4359840000000 1.0
C      1  0.5636050000000  0.4358770000000  0.5050750000000 1.0
C      1  0.4358540000000  0.5049510000000  0.5637440000000 1.0
C      1  0.5640620000000  0.4954030000000  0.5641970000000 1.0
C      1  0.5640590000000  0.5641660000000  0.4953290000000 1.0
C      1  0.4950740000000  0.4359380000000  0.4360700000000 1.0
C      1  0.4359330000000  0.4359390000000  0.4952100000000 1.0
C      1  0.4359310000000  0.4950740000000  0.4360660000000 1.0
C      1  0.5307490000000  0.4576390000000  0.4577670000000 1.0
C      1  0.4576240000000  0.5307560000000  0.4577580000000 1.0
C      1  0.4576310000000  0.4576410000000  0.5308850000000 1.0
C      1  0.5423660000000  0.5312020000000  0.5425000000000 1.0
END
