TITL C-3292282-5471-43 6.84801709291015 1000000 -3973.82394104837 0 0 540 (C1) n - 1
REM
REM in /scratch/bkarasulu/Only-C240/Try5-OnlyC540
REM
REM
REM
REM
REM
REM ./C.cell (44946988efc617adc4c7d3233e6f571a)
REM
REM compiler GCC version 9.2.1 20190827 (Red Hat 9.2.1-1)
REM options -cpp -mtune=generic -march=x86-64 -g -O0 -fpre-include=/usr/include/finclude/math-vector-fortran.h
REM seed -1145723108 1778309022 887163291 -1839119610 1798773003 -619787305 209390329 357164011 -1184806795 -1765793633 -1928328985 516331959 -178784890 -1234228961 314916693 -1639743028 1302905826 -1003894181 1210421537 1071379090 -1528749093 474692109 370336640 -199622221 1726992882 -887980715 1261730056 724909310 -1110913883 2060624893 84671867 -147431407 -980859618
REM
CELL 1.54180  100.00000  100.00000  100.00000   90.00000   90.00000   90.00000
LATT -1
SFAC C  
C      1  0.4076280000000  0.5397280000000  0.5109990000000 1.0
C      1  0.5122140000000  0.4033170000000  0.5414130000000 1.0
C      1  0.5461230000000  0.5140700000000  0.4002840000000 1.0
C      1  0.5955560000000  0.5412950000000  0.4872900000000 1.0
C      1  0.3963690000000  0.4516280000000  0.4869600000000 1.0
C      1  0.5931990000000  0.4598760000000  0.5131200000000 1.0
C      1  0.4866120000000  0.4030140000000  0.4573130000000 1.0
C      1  0.5144460000000  0.5988490000000  0.4526420000000 1.0
C      1  0.4859200000000  0.5984590000000  0.5476490000000 1.0
C      1  0.4544700000000  0.5134080000000  0.6001180000000 1.0
C      1  0.5430540000000  0.4884640000000  0.5938880000000 1.0
C      1  0.4589230000000  0.4881150000000  0.4102020000000 1.0
C      1  0.3998020000000  0.4535470000000  0.5135280000000 1.0
C      1  0.5126950000000  0.6004270000000  0.5472520000000 1.0
C      1  0.5446300000000  0.4874740000000  0.4029970000000 1.0
C      1  0.5933560000000  0.4598920000000  0.4866560000000 1.0
C      1  0.4048880000000  0.5426540000000  0.4849010000000 1.0
C      1  0.5949420000000  0.5413040000000  0.5137310000000 1.0
C      1  0.4876800000000  0.6010130000000  0.4530580000000 1.0
C      1  0.5130280000000  0.4019750000000  0.4570340000000 1.0
C      1  0.4857960000000  0.4041800000000  0.5410230000000 1.0
C      1  0.4559890000000  0.4867840000000  0.5983780000000 1.0
C      1  0.5453690000000  0.5146510000000  0.5965590000000 1.0
C      1  0.4563080000000  0.5142790000000  0.4073010000000 1.0
C      1  0.5053990000000  0.6091850000000  0.5121370000000 1.0
C      1  0.5107560000000  0.5112500000000  0.6102750000000 1.0
C      1  0.6164620000000  0.5116470000000  0.5076570000000 1.0
C      1  0.4949960000000  0.6093550000000  0.4882770000000 1.0
C      1  0.5067620000000  0.3830250000000  0.4879840000000 1.0
C      1  0.4919800000000  0.3834760000000  0.5109970000000 1.0
C      1  0.4898990000000  0.5111020000000  0.3913860000000 1.0
C      1  0.5123100000000  0.4945510000000  0.3863170000000 1.0
C      1  0.4883330000000  0.4944480000000  0.6147860000000 1.0
C      1  0.3892950000000  0.5086410000000  0.4885810000000 1.0
C      1  0.6157380000000  0.4886790000000  0.4928260000000 1.0
C      1  0.3842770000000  0.4863320000000  0.5057830000000 1.0
C      1  0.5065280000000  0.3833210000000  0.5110920000000 1.0
C      1  0.5108900000000  0.4964430000000  0.6103430000000 1.0
C      1  0.6157050000000  0.4886040000000  0.5073680000000 1.0
C      1  0.4921910000000  0.3832140000000  0.4878820000000 1.0
C      1  0.5094900000000  0.6084450000000  0.4888760000000 1.0
C      1  0.4908910000000  0.6084620000000  0.5115310000000 1.0
C      1  0.4898650000000  0.4963280000000  0.3913120000000 1.0
C      1  0.5130370000000  0.5087390000000  0.3859690000000 1.0
C      1  0.4874730000000  0.5086360000000  0.6149360000000 1.0
C      1  0.3838640000000  0.4854430000000  0.4915990000000 1.0
C      1  0.6165940000000  0.5116880000000  0.4931030000000 1.0
C      1  0.3891630000000  0.5087940000000  0.5033300000000 1.0
C      1  0.4213340000000  0.4462570000000  0.5406930000000 1.0
C      1  0.5416100000000  0.4203220000000  0.4477370000000 1.0
C      1  0.4452290000000  0.5440340000000  0.4220410000000 1.0
C      1  0.5755870000000  0.4507540000000  0.4568200000000 1.0
C      1  0.4221540000000  0.5532470000000  0.4551450000000 1.0
C      1  0.5762020000000  0.5502920000000  0.5433250000000 1.0
C      1  0.4564880000000  0.4232660000000  0.5496130000000 1.0
C      1  0.5411310000000  0.5805240000000  0.5536930000000 1.0
C      1  0.4588290000000  0.5819170000000  0.4463170000000 1.0
C      1  0.5553700000000  0.5435460000000  0.5793490000000 1.0
C      1  0.4481680000000  0.4588080000000  0.5783310000000 1.0
C      1  0.5526320000000  0.4594440000000  0.4227610000000 1.0
C      1  0.4231470000000  0.5493710000000  0.5410320000000 1.0
C      1  0.5417740000000  0.5779970000000  0.4440060000000 1.0
C      1  0.4498980000000  0.4579590000000  0.4275820000000 1.0
C      1  0.5787790000000  0.5508860000000  0.4577820000000 1.0
C      1  0.4181820000000  0.4459730000000  0.4597130000000 1.0
C      1  0.5753510000000  0.4506430000000  0.5428500000000 1.0
C      1  0.4586720000000  0.5773440000000  0.5559570000000 1.0
C      1  0.5410390000000  0.4208610000000  0.5512390000000 1.0
C      1  0.4581500000000  0.4220540000000  0.4488220000000 1.0
C      1  0.5523150000000  0.4593420000000  0.5767740000000 1.0
C      1  0.4489320000000  0.5419650000000  0.5787570000000 1.0
C      1  0.5517510000000  0.5429750000000  0.4210710000000 1.0
C      1  0.5325120000000  0.5501250000000  0.5957220000000 1.0
C      1  0.5949290000000  0.5263600000000  0.5486980000000 1.0
C      1  0.5436150000000  0.5926050000000  0.5262590000000 1.0
C      1  0.4678110000000  0.5502470000000  0.4053110000000 1.0
C      1  0.5275940000000  0.4540800000000  0.4094700000000 1.0
C      1  0.4734160000000  0.4536940000000  0.5920550000000 1.0
C      1  0.4023900000000  0.5302570000000  0.4493840000000 1.0
C      1  0.5941740000000  0.4745780000000  0.4515280000000 1.0
C      1  0.4081890000000  0.4714480000000  0.5460390000000 1.0
C      1  0.4564330000000  0.5938060000000  0.4738710000000 1.0
C      1  0.5472750000000  0.4061950000000  0.4729420000000 1.0
C      1  0.4511380000000  0.4055280000000  0.5253050000000 1.0
C      1  0.5266850000000  0.4545090000000  0.5895770000000 1.0
C      1  0.5939840000000  0.4742550000000  0.5483700000000 1.0
C      1  0.5469670000000  0.4064270000000  0.5262980000000 1.0
C      1  0.4748270000000  0.4537720000000  0.4101300000000 1.0
C      1  0.5252120000000  0.5459910000000  0.4049750000000 1.0
C      1  0.4751060000000  0.5455060000000  0.5953220000000 1.0
C      1  0.4043080000000  0.4722670000000  0.4556800000000 1.0
C      1  0.5945190000000  0.5268800000000  0.4520850000000 1.0
C      1  0.4085910000000  0.5244440000000  0.5456710000000 1.0
C      1  0.4520980000000  0.4071300000000  0.4729030000000 1.0
C      1  0.5484970000000  0.5930080000000  0.4679760000000 1.0
C      1  0.4519350000000  0.5926410000000  0.5322020000000 1.0
C      1  0.4426700000000  0.5676010000000  0.4472120000000 1.0
C      1  0.4475680000000  0.4430830000000  0.5640500000000 1.0
C      1  0.5657580000000  0.4471970000000  0.4459650000000 1.0
C      1  0.5567970000000  0.5656030000000  0.5524820000000 1.0
C      1  0.4456580000000  0.4336750000000  0.5525620000000 1.0
C      1  0.5569310000000  0.4351480000000  0.4476620000000 1.0
C      1  0.5542380000000  0.4437940000000  0.4375110000000 1.0
C      1  0.4440710000000  0.5596310000000  0.4362850000000 1.0
C      1  0.5555950000000  0.5579490000000  0.5636640000000 1.0
C      1  0.4370130000000  0.4452690000000  0.5557180000000 1.0
C      1  0.5663360000000  0.5541530000000  0.5541570000000 1.0
C      1  0.4327300000000  0.5565470000000  0.4450800000000 1.0
C      1  0.4426890000000  0.4371930000000  0.4478730000000 1.0
C      1  0.4468980000000  0.5524670000000  0.5677990000000 1.0
C      1  0.5654800000000  0.5518400000000  0.4413590000000 1.0
C      1  0.5566350000000  0.4351530000000  0.5518640000000 1.0
C      1  0.4438400000000  0.5614950000000  0.5564310000000 1.0
C      1  0.5570500000000  0.5624030000000  0.4432530000000 1.0
C      1  0.5539490000000  0.5534660000000  0.4318960000000 1.0
C      1  0.4463500000000  0.4465910000000  0.4370750000000 1.0
C      1  0.5538480000000  0.4437450000000  0.5620430000000 1.0
C      1  0.4358380000000  0.5505430000000  0.5579180000000 1.0
C      1  0.5654870000000  0.4471050000000  0.5537450000000 1.0
C      1  0.4341050000000  0.4475550000000  0.4457140000000 1.0
C      1  0.5349260000000  0.4933320000000  0.3949840000000 1.0
C      1  0.3986020000000  0.5315140000000  0.4907370000000 1.0
C      1  0.4920130000000  0.3963600000000  0.5312570000000 1.0
C      1  0.4656750000000  0.4928510000000  0.6062660000000 1.0
C      1  0.5340040000000  0.5087780000000  0.6022080000000 1.0
C      1  0.4673540000000  0.5084850000000  0.4011400000000 1.0
C      1  0.6030770000000  0.5316980000000  0.5076010000000 1.0
C      1  0.3919060000000  0.4633780000000  0.5075320000000 1.0
C      1  0.6014550000000  0.4693230000000  0.4928790000000 1.0
C      1  0.5067980000000  0.3949510000000  0.4672820000000 1.0
C      1  0.4949380000000  0.6069640000000  0.4634420000000 1.0
C      1  0.5054810000000  0.6065870000000  0.5369540000000 1.0
C      1  0.5365470000000  0.5072080000000  0.3926880000000 1.0
C      1  0.3892410000000  0.4616580000000  0.4936820000000 1.0
C      1  0.4916210000000  0.6052320000000  0.5367120000000 1.0
C      1  0.4639960000000  0.5067950000000  0.6080540000000 1.0
C      1  0.5326330000000  0.4949690000000  0.6003600000000 1.0
C      1  0.4688070000000  0.4946990000000  0.4029330000000 1.0
C      1  0.6013750000000  0.4693020000000  0.5070080000000 1.0
C      1  0.4004300000000  0.5298560000000  0.5045180000000 1.0
C      1  0.6033310000000  0.5316260000000  0.4934560000000 1.0
C      1  0.5087760000000  0.6054960000000  0.4636700000000 1.0
C      1  0.4926520000000  0.3954500000000  0.4673370000000 1.0
C      1  0.5061510000000  0.3959890000000  0.5313430000000 1.0
C      1  0.6050500000000  0.4928760000000  0.5376260000000 1.0
C      1  0.5386270000000  0.6074540000000  0.4847110000000 1.0
C      1  0.4905250000000  0.5313990000000  0.6081370000000 1.0
C      1  0.3908460000000  0.4882350000000  0.4688640000000 1.0
C      1  0.6053370000000  0.5077370000000  0.4626290000000 1.0
C      1  0.3983440000000  0.5051710000000  0.5346690000000 1.0
C      1  0.4617380000000  0.6074730000000  0.5157370000000 1.0
C      1  0.5368170000000  0.3954640000000  0.5069600000000 1.0
C      1  0.4625860000000  0.3956370000000  0.4918340000000 1.0
C      1  0.5098020000000  0.5315500000000  0.3925640000000 1.0
C      1  0.4936950000000  0.4651970000000  0.4000660000000 1.0
C      1  0.5075000000000  0.4652660000000  0.6004660000000 1.0
C      1  0.6053670000000  0.5074880000000  0.5377380000000 1.0
C      1  0.5369340000000  0.3953580000000  0.4922490000000 1.0
C      1  0.4928560000000  0.4648580000000  0.6017390000000 1.0
C      1  0.3881970000000  0.5142370000000  0.4599620000000 1.0
C      1  0.6051260000000  0.4931450000000  0.4624810000000 1.0
C      1  0.3976660000000  0.4905550000000  0.5349810000000 1.0
C      1  0.4623150000000  0.3952000000000  0.5064580000000 1.0
C      1  0.5292320000000  0.6043770000000  0.5094740000000 1.0
C      1  0.4710680000000  0.6049330000000  0.4908510000000 1.0
C      1  0.5083150000000  0.4651440000000  0.3993190000000 1.0
C      1  0.4837460000000  0.5397670000000  0.3903340000000 1.0
C      1  0.5164360000000  0.5399710000000  0.6108520000000 1.0
C      1  0.5428510000000  0.4744650000000  0.4078910000000 1.0
C      1  0.4066150000000  0.5435900000000  0.4708250000000 1.0
C      1  0.4721640000000  0.4078510000000  0.5398420000000 1.0
C      1  0.4580700000000  0.4737150000000  0.5938900000000 1.0
C      1  0.5459350000000  0.5284730000000  0.5941270000000 1.0
C      1  0.4553240000000  0.5282110000000  0.4088040000000 1.0
C      1  0.5916520000000  0.5403270000000  0.5274890000000 1.0
C      1  0.4053560000000  0.4556280000000  0.5262540000000 1.0
C      1  0.5904750000000  0.4607990000000  0.4728360000000 1.0
C      1  0.5265770000000  0.4052130000000  0.4582720000000 1.0
C      1  0.4741060000000  0.5975770000000  0.4551130000000 1.0
C      1  0.5261840000000  0.5967090000000  0.5451040000000 1.0
C      1  0.5441500000000  0.5277340000000  0.4043110000000 1.0
C      1  0.4004010000000  0.4535830000000  0.4734460000000 1.0
C      1  0.4726190000000  0.5939240000000  0.5471350000000 1.0
C      1  0.4563640000000  0.5270250000000  0.5958820000000 1.0
C      1  0.5415890000000  0.4751540000000  0.5900210000000 1.0
C      1  0.4604050000000  0.4745280000000  0.4136240000000 1.0
C      1  0.5902100000000  0.4607320000000  0.5269180000000 1.0
C      1  0.4105460000000  0.5382000000000  0.5245250000000 1.0
C      1  0.5929840000000  0.5403050000000  0.4735700000000 1.0
C      1  0.5277700000000  0.5943710000000  0.4530660000000 1.0
C      1  0.4732170000000  0.4070060000000  0.4585240000000 1.0
C      1  0.5258460000000  0.4062410000000  0.5404100000000 1.0
C      1  0.5142710000000  0.3903760000000  0.4784460000000 1.0
C      1  0.4773780000000  0.5165670000000  0.3952930000000 1.0
C      1  0.3901260000000  0.4759400000000  0.5138310000000 1.0
C      1  0.4846720000000  0.3913610000000  0.5203040000000 1.0
C      1  0.5117710000000  0.6091900000000  0.5247660000000 1.0
C      1  0.4886570000000  0.6095600000000  0.4756380000000 1.0
C      1  0.5234640000000  0.5168170000000  0.6070970000000 1.0
C      1  0.4780940000000  0.4863860000000  0.6087980000000 1.0
C      1  0.5226450000000  0.4867200000000  0.3925050000000 1.0
C      1  0.6074910000000  0.4797310000000  0.4854410000000 1.0
C      1  0.3927720000000  0.5212900000000  0.4828900000000 1.0
C      1  0.6085600000000  0.5209840000000  0.5150040000000 1.0
C      1  0.5158410000000  0.6073250000000  0.4757980000000 1.0
C      1  0.4804490000000  0.4882430000000  0.3985600000000 1.0
C      1  0.3962570000000  0.5182880000000  0.5112970000000 1.0
C      1  0.4845520000000  0.6072140000000  0.5246060000000 1.0
C      1  0.5138350000000  0.3910000000000  0.5204900000000 1.0
C      1  0.4850730000000  0.3909970000000  0.4783640000000 1.0
C      1  0.5206810000000  0.4883830000000  0.6035950000000 1.0
C      1  0.4748300000000  0.5142590000000  0.6128500000000 1.0
C      1  0.5256360000000  0.5145200000000  0.3878100000000 1.0
C      1  0.6088130000000  0.5210160000000  0.4858000000000 1.0
C      1  0.3850390000000  0.4727060000000  0.4860180000000 1.0
C      1  0.6073660000000  0.4796370000000  0.5145710000000 1.0
C      1  0.5860290000000  0.5319660000000  0.5586640000000 1.0
C      1  0.5529620000000  0.5827640000000  0.5319150000000 1.0
C      1  0.5364590000000  0.5591170000000  0.5848950000000 1.0
C      1  0.4127810000000  0.5342840000000  0.4402750000000 1.0
C      1  0.5851310000000  0.4691760000000  0.4415810000000 1.0
C      1  0.4178220000000  0.4659040000000  0.5556750000000 1.0
C      1  0.4468600000000  0.5843440000000  0.4680220000000 1.0
C      1  0.5562910000000  0.4161690000000  0.4672360000000 1.0
C      1  0.4410990000000  0.4144240000000  0.5307750000000 1.0
C      1  0.4637590000000  0.5597030000000  0.4156730000000 1.0
C      1  0.5333500000000  0.4441820000000  0.4186570000000 1.0
C      1  0.4676240000000  0.4441150000000  0.5826620000000 1.0
C      1  0.5849680000000  0.4688380000000  0.5582900000000 1.0
C      1  0.5560510000000  0.4162760000000  0.5321070000000 1.0
C      1  0.5326080000000  0.4445750000000  0.5805040000000 1.0
C      1  0.4151530000000  0.4672760000000  0.4471910000000 1.0
C      1  0.5851560000000  0.5325890000000  0.4424130000000 1.0
C      1  0.4171250000000  0.5304910000000  0.5558720000000 1.0
C      1  0.4423490000000  0.4166490000000  0.4673580000000 1.0
C      1  0.5570460000000  0.5819680000000  0.4636570000000 1.0
C      1  0.4434400000000  0.5814520000000  0.5362840000000 1.0
C      1  0.4690740000000  0.4433160000000  0.4183350000000 1.0
C      1  0.5303040000000  0.5559710000000  0.4143020000000 1.0
C      1  0.4700640000000  0.5553430000000  0.5858340000000 1.0
C      1  0.4753770000000  0.4324110000000  0.5813170000000 1.0
C      1  0.5850500000000  0.4764960000000  0.4295450000000 1.0
C      1  0.4361880000000  0.5815990000000  0.4765070000000 1.0
C      1  0.5254630000000  0.4321910000000  0.4189120000000 1.0
C      1  0.4729420000000  0.5706990000000  0.4158810000000 1.0
C      1  0.5272170000000  0.5700630000000  0.5844010000000 1.0
C      1  0.4184380000000  0.4740230000000  0.5675240000000 1.0
C      1  0.5863170000000  0.5247070000000  0.5707660000000 1.0
C      1  0.4140020000000  0.5249960000000  0.4297680000000 1.0
C      1  0.5635990000000  0.5799860000000  0.5233760000000 1.0
C      1  0.4289520000000  0.4142960000000  0.5235240000000 1.0
C      1  0.5677040000000  0.4184000000000  0.4751280000000 1.0
C      1  0.4779590000000  0.5668170000000  0.5853820000000 1.0
C      1  0.5845840000000  0.5252340000000  0.4304410000000 1.0
C      1  0.4301320000000  0.4163230000000  0.4748780000000 1.0
C      1  0.5222710000000  0.5673440000000  0.4147870000000 1.0
C      1  0.4763310000000  0.4312050000000  0.4177390000000 1.0
C      1  0.5246960000000  0.4326730000000  0.5800060000000 1.0
C      1  0.4172440000000  0.5231700000000  0.5679070000000 1.0
C      1  0.5850440000000  0.4759620000000  0.5704470000000 1.0
C      1  0.4177930000000  0.4759000000000  0.4366120000000 1.0
C      1  0.5675790000000  0.4183600000000  0.5243670000000 1.0
C      1  0.4329290000000  0.5798460000000  0.5266210000000 1.0
C      1  0.5675190000000  0.5801610000000  0.4733160000000 1.0
C      1  0.5863050000000  0.4490520000000  0.4927440000000 1.0
C      1  0.4932480000000  0.5940130000000  0.4417930000000 1.0
C      1  0.4447290000000  0.4928650000000  0.5918540000000 1.0
C      1  0.4053760000000  0.4418940000000  0.5073730000000 1.0
C      1  0.5877870000000  0.5520430000000  0.5075320000000 1.0
C      1  0.4125730000000  0.5528580000000  0.4914540000000 1.0
C      1  0.5070670000000  0.5933990000000  0.5584500000000 1.0
C      1  0.4918470000000  0.4106920000000  0.5522120000000 1.0
C      1  0.5070040000000  0.4085500000000  0.4457910000000 1.0
C      1  0.5561510000000  0.4937330000000  0.4087020000000 1.0
C      1  0.4457660000000  0.5076940000000  0.4143090000000 1.0
C      1  0.5563660000000  0.5081200000000  0.5902510000000 1.0
C      1  0.5882310000000  0.5520170000000  0.4933160000000 1.0
C      1  0.4927970000000  0.4090180000000  0.4459320000000 1.0
C      1  0.4443010000000  0.5071330000000  0.5922190000000 1.0
C      1  0.4133270000000  0.5516640000000  0.5055950000000 1.0
C      1  0.5862240000000  0.4490450000000  0.5069460000000 1.0
C      1  0.4042640000000  0.4413140000000  0.4931520000000 1.0
C      1  0.5060420000000  0.4101820000000  0.5524000000000 1.0
C      1  0.4927770000000  0.5924040000000  0.5586720000000 1.0
C      1  0.5075500000000  0.5929280000000  0.4415580000000 1.0
C      1  0.5565420000000  0.5080290000000  0.4079840000000 1.0
C      1  0.4468710000000  0.4935590000000  0.4155730000000 1.0
C      1  0.5554920000000  0.4939530000000  0.5894930000000 1.0
C      1  0.4940260000000  0.4198140000000  0.4165820000000 1.0
C      1  0.4167740000000  0.4924230000000  0.4241240000000 1.0
C      1  0.4179270000000  0.4135600000000  0.4921660000000 1.0
C      1  0.5068180000000  0.4211470000000  0.5813950000000 1.0
C      1  0.4949640000000  0.5787350000000  0.5870860000000 1.0
C      1  0.5052180000000  0.5791730000000  0.4131000000000 1.0
C      1  0.5863230000000  0.4932250000000  0.5822680000000 1.0
C      1  0.4163700000000  0.5056440000000  0.5795540000000 1.0
C      1  0.5854270000000  0.5079730000000  0.4184810000000 1.0
C      1  0.5788490000000  0.4192870000000  0.5066680000000 1.0
C      1  0.4231190000000  0.5807610000000  0.5076510000000 1.0
C      1  0.5770310000000  0.5804180000000  0.4924630000000 1.0
C      1  0.4915490000000  0.5807040000000  0.4136830000000 1.0
C      1  0.4155440000000  0.5057850000000  0.4214080000000 1.0
C      1  0.4249580000000  0.5811740000000  0.4940400000000 1.0
C      1  0.5086420000000  0.5802540000000  0.5864910000000 1.0
C      1  0.4929840000000  0.4208380000000  0.5814130000000 1.0
C      1  0.5078710000000  0.4202860000000  0.4168780000000 1.0
C      1  0.5868280000000  0.5070270000000  0.5822370000000 1.0
C      1  0.4165260000000  0.4917850000000  0.5792940000000 1.0
C      1  0.5857090000000  0.4941600000000  0.4181540000000 1.0
C      1  0.5751700000000  0.5802280000000  0.5060700000000 1.0
C      1  0.4172890000000  0.4131150000000  0.5060080000000 1.0
C      1  0.5788900000000  0.4193170000000  0.4928870000000 1.0
C      1  0.4690200000000  0.4169600000000  0.5504090000000 1.0
C      1  0.5539420000000  0.4711580000000  0.4163790000000 1.0
C      1  0.4163390000000  0.5535630000000  0.4680150000000 1.0
C      1  0.5299320000000  0.4139710000000  0.4474660000000 1.0
C      1  0.4702750000000  0.5886190000000  0.4446710000000 1.0
C      1  0.5299020000000  0.5875750000000  0.5554210000000 1.0
C      1  0.4475350000000  0.4703660000000  0.5849140000000 1.0
C      1  0.5566110000000  0.5314560000000  0.5850880000000 1.0
C      1  0.4445700000000  0.5313950000000  0.4175990000000 1.0
C      1  0.5821870000000  0.5505640000000  0.5305540000000 1.0
C      1  0.4141590000000  0.4446770000000  0.5294330000000 1.0
C      1  0.5812760000000  0.4504050000000  0.4695930000000 1.0
C      1  0.4701380000000  0.5843740000000  0.5575110000000 1.0
C      1  0.5538580000000  0.5308460000000  0.4142230000000 1.0
C      1  0.4106370000000  0.4441090000000  0.4705720000000 1.0
C      1  0.5302460000000  0.5849550000000  0.4425580000000 1.0
C      1  0.4699740000000  0.4158210000000  0.4476010000000 1.0
C      1  0.5291150000000  0.4150300000000  0.5511500000000 1.0
C      1  0.4468500000000  0.5298550000000  0.5856690000000 1.0
C      1  0.5534420000000  0.4712110000000  0.5828000000000 1.0
C      1  0.4493140000000  0.4707530000000  0.4217810000000 1.0
C      1  0.5810150000000  0.4503190000000  0.5300770000000 1.0
C      1  0.4182730000000  0.5493830000000  0.5286640000000 1.0
C      1  0.5839870000000  0.5506920000000  0.4700240000000 1.0
C      1  0.5038140000000  0.5573300000000  0.4000570000000 1.0
C      1  0.4017820000000  0.5054090000000  0.5595360000000 1.0
C      1  0.5612670000000  0.4017350000000  0.5068440000000 1.0
C      1  0.4963170000000  0.5570960000000  0.6003680000000 1.0
C      1  0.5075100000000  0.4406080000000  0.5963220000000 1.0
C      1  0.4938690000000  0.4402590000000  0.4025370000000 1.0
C      1  0.6009960000000  0.5079020000000  0.4378300000000 1.0
C      1  0.4004820000000  0.4936970000000  0.4437230000000 1.0
C      1  0.6015470000000  0.4928810000000  0.5625390000000 1.0
C      1  0.4380410000000  0.3996440000000  0.4917550000000 1.0
C      1  0.5585950000000  0.5965360000000  0.4905690000000 1.0
C      1  0.4416880000000  0.5967600000000  0.5098060000000 1.0
C      1  0.5080890000000  0.4405170000000  0.4030020000000 1.0
C      1  0.4021920000000  0.4911940000000  0.5594520000000 1.0
C      1  0.5549170000000  0.5954890000000  0.5046740000000 1.0
C      1  0.4933100000000  0.4402620000000  0.5968180000000 1.0
C      1  0.5105310000000  0.5605440000000  0.6011820000000 1.0
C      1  0.4895580000000  0.5607430000000  0.3992100000000 1.0
C      1  0.6012010000000  0.4936430000000  0.4376200000000 1.0
C      1  0.3984580000000  0.5076660000000  0.4394980000000 1.0
C      1  0.6019070000000  0.5071480000000  0.5625790000000 1.0
C      1  0.4452710000000  0.5962620000000  0.4956370000000 1.0
C      1  0.5613320000000  0.4017480000000  0.4926130000000 1.0
C      1  0.4375790000000  0.3988450000000  0.5059690000000 1.0
C      1  0.4259580000000  0.5169930000000  0.5781850000000 1.0
C      1  0.5758850000000  0.4287130000000  0.5177530000000 1.0
C      1  0.5167910000000  0.5789390000000  0.4222120000000 1.0
C      1  0.5754880000000  0.5188100000000  0.4206530000000 1.0
C      1  0.4269040000000  0.4818750000000  0.4264020000000 1.0
C      1  0.5761460000000  0.4826660000000  0.5801400000000 1.0
C      1  0.4191810000000  0.4238400000000  0.4818150000000 1.0
C      1  0.5763730000000  0.5711000000000  0.4810700000000 1.0
C      1  0.4239670000000  0.5710160000000  0.5186810000000 1.0
C      1  0.4834690000000  0.5783520000000  0.5778980000000 1.0
C      1  0.5175610000000  0.4225700000000  0.5715890000000 1.0
C      1  0.4827810000000  0.4209740000000  0.4261700000000 1.0
C      1  0.4265480000000  0.4811990000000  0.5779340000000 1.0
C      1  0.5743110000000  0.5710840000000  0.5177300000000 1.0
C      1  0.5185310000000  0.4214930000000  0.4268350000000 1.0
C      1  0.5760050000000  0.4831890000000  0.4200320000000 1.0
C      1  0.4240900000000  0.5178200000000  0.4221430000000 1.0
C      1  0.5773850000000  0.5181270000000  0.5803490000000 1.0
C      1  0.4255000000000  0.5726340000000  0.4819480000000 1.0
C      1  0.5759690000000  0.4287690000000  0.4817970000000 1.0
C      1  0.4186250000000  0.4227820000000  0.5171920000000 1.0
C      1  0.4816510000000  0.4227810000000  0.5719010000000 1.0
C      1  0.5195440000000  0.5801500000000  0.5765610000000 1.0
C      1  0.4806330000000  0.5809120000000  0.4236020000000 1.0
C      1  0.5972930000000  0.5296870000000  0.4659460000000 1.0
C      1  0.4647920000000  0.5971730000000  0.5364400000000 1.0
C      1  0.5298500000000  0.4682280000000  0.5926350000000 1.0
C      1  0.4066030000000  0.5271540000000  0.5317010000000 1.0
C      1  0.5954810000000  0.4712450000000  0.5344500000000 1.0
C      1  0.3977520000000  0.4653540000000  0.4664110000000 1.0
C      1  0.5356170000000  0.5975380000000  0.4637960000000 1.0
C      1  0.4657660000000  0.4037460000000  0.4697330000000 1.0
C      1  0.5334010000000  0.4027270000000  0.5293610000000 1.0
C      1  0.4716780000000  0.4676660000000  0.4090670000000 1.0
C      1  0.5324480000000  0.5345500000000  0.4004120000000 1.0
C      1  0.4679380000000  0.5340250000000  0.5998850000000 1.0
C      1  0.5957560000000  0.4713950000000  0.4654110000000 1.0
C      1  0.4648910000000  0.4034730000000  0.5287360000000 1.0
C      1  0.5361050000000  0.5366660000000  0.5987890000000 1.0
C      1  0.4035810000000  0.4676290000000  0.5329190000000 1.0
C      1  0.5966580000000  0.5295470000000  0.5348690000000 1.0
C      1  0.4004460000000  0.5341220000000  0.4628620000000 1.0
C      1  0.5338680000000  0.4021570000000  0.4696390000000 1.0
C      1  0.4677570000000  0.5996640000000  0.4673970000000 1.0
C      1  0.5324860000000  0.5987220000000  0.5328160000000 1.0
C      1  0.4646240000000  0.5364870000000  0.4032370000000 1.0
C      1  0.5311190000000  0.4675030000000  0.4055770000000 1.0
C      1  0.4698320000000  0.4669370000000  0.5962640000000 1.0
C      1  0.4278870000000  0.4061380000000  0.4849280000000 1.0
C      1  0.4871190000000  0.4295510000000  0.4083540000000 1.0
C      1  0.4086940000000  0.4868720000000  0.4347010000000 1.0
C      1  0.5708140000000  0.4093950000000  0.5134870000000 1.0
C      1  0.4317430000000  0.5890710000000  0.5153700000000 1.0
C      1  0.5685850000000  0.5890300000000  0.4848900000000 1.0
C      1  0.5141450000000  0.4304360000000  0.5896350000000 1.0
C      1  0.4893180000000  0.5673390000000  0.5940270000000 1.0
C      1  0.5108040000000  0.5676690000000  0.4062720000000 1.0
C      1  0.5948130000000  0.4862230000000  0.5728120000000 1.0
C      1  0.4079060000000  0.5123030000000  0.5699530000000 1.0
C      1  0.5941540000000  0.5147170000000  0.4277940000000 1.0
C      1  0.4354870000000  0.5893310000000  0.4885670000000 1.0
C      1  0.4839610000000  0.5711080000000  0.4063570000000 1.0
C      1  0.4057850000000  0.5130610000000  0.4291020000000 1.0
C      1  0.5645460000000  0.5881900000000  0.5116340000000 1.0
C      1  0.4270420000000  0.4048610000000  0.5127960000000 1.0
C      1  0.5708990000000  0.4094350000000  0.4860250000000 1.0
C      1  0.5162220000000  0.5707660000000  0.5939300000000 1.0
C      1  0.4864150000000  0.4300320000000  0.5903580000000 1.0
C      1  0.5149540000000  0.4301830000000  0.4091970000000 1.0
C      1  0.5956060000000  0.5139590000000  0.5729690000000 1.0
C      1  0.4086740000000  0.4844980000000  0.5697020000000 1.0
C      1  0.5945140000000  0.4871050000000  0.4272940000000 1.0
C      1  0.4750030000000  0.5302470000000  0.3950930000000 1.0
C      1  0.3964150000000  0.4785670000000  0.5262800000000 1.0
C      1  0.5275500000000  0.3949740000000  0.4806470000000 1.0
C      1  0.5256290000000  0.5305320000000  0.6069380000000 1.0
C      1  0.4808510000000  0.4736870000000  0.6030490000000 1.0
C      1  0.5201360000000  0.4741170000000  0.3984880000000 1.0
C      1  0.6036150000000  0.4818380000000  0.4720200000000 1.0
C      1  0.3923790000000  0.5236420000000  0.4692420000000 1.0
C      1  0.6043010000000  0.5188970000000  0.5282840000000 1.0
C      1  0.4715290000000  0.3959110000000  0.5180640000000 1.0
C      1  0.5251290000000  0.6057990000000  0.5229910000000 1.0
C      1  0.4752360000000  0.6064230000000  0.4773510000000 1.0
C      1  0.4824430000000  0.4746950000000  0.4019810000000 1.0
C      1  0.3997150000000  0.5162810000000  0.5249320000000 1.0
C      1  0.5295180000000  0.6054070000000  0.4746540000000 1.0
C      1  0.5187750000000  0.4748920000000  0.5995740000000 1.0
C      1  0.4768580000000  0.5272910000000  0.6085590000000 1.0
C      1  0.5235110000000  0.5276080000000  0.3919350000000 1.0
C      1  0.6047100000000  0.5189400000000  0.4723350000000 1.0
C      1  0.3892920000000  0.4745970000000  0.4728570000000 1.0
C      1  0.6034090000000  0.4816970000000  0.5279670000000 1.0
C      1  0.4708720000000  0.6052620000000  0.5257260000000 1.0
C      1  0.5272020000000  0.3954130000000  0.5183950000000 1.0
C      1  0.4720020000000  0.3959980000000  0.4804720000000 1.0
C      1  0.4889830000000  0.5448350000000  0.6015000000000 1.0
C      1  0.6012590000000  0.4865350000000  0.5501860000000 1.0
C      1  0.5498370000000  0.6002110000000  0.4808340000000 1.0
C      1  0.5112570000000  0.5451040000000  0.3990130000000 1.0
C      1  0.4873850000000  0.4524900000000  0.4032170000000 1.0
C      1  0.5138530000000  0.4528970000000  0.5961260000000 1.0
C      1  0.3984390000000  0.4865000000000  0.4559310000000 1.0
C      1  0.6012110000000  0.5142330000000  0.4501720000000 1.0
C      1  0.4019850000000  0.5117190000000  0.5472150000000 1.0
C      1  0.4505480000000  0.6001290000000  0.5195380000000 1.0
C      1  0.5490610000000  0.4003360000000  0.5133450000000 1.0
C      1  0.4503170000000  0.4001780000000  0.4854940000000 1.0
C      1  0.4866510000000  0.4523410000000  0.5975930000000 1.0
C      1  0.6017930000000  0.5137630000000  0.5503600000000 1.0
C      1  0.5492180000000  0.4002660000000  0.4859910000000 1.0
C      1  0.5145680000000  0.4526870000000  0.4033660000000 1.0
C      1  0.4797980000000  0.5515490000000  0.3966970000000 1.0
C      1  0.5203000000000  0.5515020000000  0.6040000000000 1.0
C      1  0.3946390000000  0.5177030000000  0.4481470000000 1.0
C      1  0.6012660000000  0.4870000000000  0.4498470000000 1.0
C      1  0.4021840000000  0.4845310000000  0.5473840000000 1.0
C      1  0.4497040000000  0.3988560000000  0.5126400000000 1.0
C      1  0.5427550000000  0.5975450000000  0.5117780000000 1.0
C      1  0.4574020000000  0.5984200000000  0.4884620000000 1.0
C      1  0.5173870000000  0.4166220000000  0.5593020000000 1.0
C      1  0.5628530000000  0.5194750000000  0.4153580000000 1.0
C      1  0.4192450000000  0.5583090000000  0.5174640000000 1.0
C      1  0.4818620000000  0.4159050000000  0.4388490000000 1.0
C      1  0.5180560000000  0.5851020000000  0.4343530000000 1.0
C      1  0.4822630000000  0.5844990000000  0.5657580000000 1.0
C      1  0.4381680000000  0.5182540000000  0.5843210000000 1.0
C      1  0.5628630000000  0.4825830000000  0.5836900000000 1.0
C      1  0.4400140000000  0.4818800000000  0.4220770000000 1.0
C      1  0.5819640000000  0.5587450000000  0.4816910000000 1.0
C      1  0.4119980000000  0.4354400000000  0.4819560000000 1.0
C      1  0.5797630000000  0.4418600000000  0.5183830000000 1.0
C      1  0.5187850000000  0.5865880000000  0.5645800000000 1.0
C      1  0.5630270000000  0.4827520000000  0.4158050000000 1.0
C      1  0.4133140000000  0.4353910000000  0.5180190000000 1.0
C      1  0.4814420000000  0.5874150000000  0.4355630000000 1.0
C      1  0.5183420000000  0.4151880000000  0.4389880000000 1.0
C      1  0.4806400000000  0.4177720000000  0.5591120000000 1.0
C      1  0.4386680000000  0.4816480000000  0.5842300000000 1.0
C      1  0.5644560000000  0.5190770000000  0.5844660000000 1.0
C      1  0.4372490000000  0.5188020000000  0.4191560000000 1.0
C      1  0.5799190000000  0.4419060000000  0.4812280000000 1.0
C      1  0.4190330000000  0.5606080000000  0.4802720000000 1.0
C      1  0.5804890000000  0.5587980000000  0.5188120000000 1.0
C      1  0.4250070000000  0.5426140000000  0.5525240000000 1.0
C      1  0.5522110000000  0.4237140000000  0.5442860000000 1.0
C      1  0.5426640000000  0.5528290000000  0.4214500000000 1.0
C      1  0.5768740000000  0.5443350000000  0.4461820000000 1.0
C      1  0.4221710000000  0.4544760000000  0.4501140000000 1.0
C      1  0.5764190000000  0.4578900000000  0.5541100000000 1.0
C      1  0.4467680000000  0.4251140000000  0.4554620000000 1.0
C      1  0.5528210000000  0.5743490000000  0.4510150000000 1.0
C      1  0.4477390000000  0.5736480000000  0.5488240000000 1.0
C      1  0.4578800000000  0.5519520000000  0.5784820000000 1.0
C      1  0.5453430000000  0.4483250000000  0.5732270000000 1.0
C      1  0.4576330000000  0.4470010000000  0.4265860000000 1.0
C      1  0.4252950000000  0.4533020000000  0.5515510000000 1.0
C      1  0.5508360000000  0.5766110000000  0.5452250000000 1.0
C      1  0.5458720000000  0.4482370000000  0.4261560000000 1.0
C      1  0.5766650000000  0.4581100000000  0.4456290000000 1.0
C      1  0.4212260000000  0.5455100000000  0.4442080000000 1.0
C      1  0.5773780000000  0.5430090000000  0.5545670000000 1.0
C      1  0.4488840000000  0.5783170000000  0.4546540000000 1.0
C      1  0.5525150000000  0.4235410000000  0.4549770000000 1.0
C      1  0.4454150000000  0.4226550000000  0.5420070000000 1.0
C      1  0.4552930000000  0.4477900000000  0.5753050000000 1.0
C      1  0.5483750000000  0.5546960000000  0.5762600000000 1.0
C      1  0.4518280000000  0.5556110000000  0.4242780000000 1.0
C      1  0.4999420000000  0.4891070000000  0.3859740000000 1.0
C      1  0.3873810000000  0.4958550000000  0.4820130000000 1.0
C      1  0.4853970000000  0.3799720000000  0.4994180000000 1.0
C      1  0.5007390000000  0.4891100000000  0.6153140000000 1.0
C      1  0.4980280000000  0.5181130000000  0.6118770000000 1.0
C      1  0.5024340000000  0.5181230000000  0.3891720000000 1.0
C      1  0.6198360000000  0.4999370000000  0.5142100000000 1.0
C      1  0.3840110000000  0.4988200000000  0.5108430000000 1.0
C      1  0.6200180000000  0.5001000000000  0.4862740000000 1.0
C      1  0.5132440000000  0.3796320000000  0.4996410000000 1.0
C      1  0.4847460000000  0.6075970000000  0.4984990000000 1.0
C      1  0.5156110000000  0.6073560000000  0.5018910000000 1.0
END
