TITL C-3292282-5471-50 -44.4676513218438 1000000 -3787.5930100044 0 0 540 (Th) n - 1
REM
REM in /scratch/bkarasulu/Only-C240/Try5-OnlyC540
REM
REM
REM
REM
REM
REM ./C.cell (44946988efc617adc4c7d3233e6f571a)
REM
REM compiler GCC version 9.2.1 20190827 (Red Hat 9.2.1-1)
REM options -cpp -mtune=generic -march=x86-64 -g -O0 -fpre-include=/usr/include/finclude/math-vector-fortran.h
REM seed -484492075 459892856 -860814958 -1538194154 -1642227087 1985939880 1636742966 -1326078592 -514907350 934654928 -1424142229 -1354697809 2141797588 -906016299 -367800108 1416167818 2085224027 -1647457442 -522342964 -1294422053 1698967057 -1381394176 56149987 -2072039346 -227014705 89750015 461003638 1024192026 1332100533 -1099091937 1189049247 605730248 306496256
REM
CELL 1.54180  100.00000  100.00000  100.00000   90.00000   90.00000   90.00000
LATT -1
SFAC C  
C      1  0.4708650000000  0.6090670000000  0.4598760000000 1.0
C      1  0.6090680000000  0.4598790000000  0.4708670000000 1.0
C      1  0.4598790000000  0.4708690000000  0.6090690000000 1.0
C      1  0.4708670000000  0.3909330000000  0.5401250000000 1.0
C      1  0.5291330000000  0.6090690000000  0.5401190000000 1.0
C      1  0.5291350000000  0.3909310000000  0.4598810000000 1.0
C      1  0.6090680000000  0.5401230000000  0.5291320000000 1.0
C      1  0.3909320000000  0.4598780000000  0.5291350000000 1.0
C      1  0.3909320000000  0.5401200000000  0.4708660000000 1.0
C      1  0.4598780000000  0.5291300000000  0.3909310000000 1.0
C      1  0.5401210000000  0.4708640000000  0.3909330000000 1.0
C      1  0.5401220000000  0.5291370000000  0.6090670000000 1.0
C      1  0.5291330000000  0.6090670000000  0.4598750000000 1.0
C      1  0.3909320000000  0.4598770000000  0.4708680000000 1.0
C      1  0.5401220000000  0.4708700000000  0.6090690000000 1.0
C      1  0.5291350000000  0.3909330000000  0.5401240000000 1.0
C      1  0.4708650000000  0.6090690000000  0.5401190000000 1.0
C      1  0.4708670000000  0.3909310000000  0.4598810000000 1.0
C      1  0.3909320000000  0.5401210000000  0.5291330000000 1.0
C      1  0.6090680000000  0.4598800000000  0.5291350000000 1.0
C      1  0.6090670000000  0.5401220000000  0.4708650000000 1.0
C      1  0.5401210000000  0.5291310000000  0.3909310000000 1.0
C      1  0.4598780000000  0.4708630000000  0.3909330000000 1.0
C      1  0.4598780000000  0.5291360000000  0.6090670000000 1.0
C      1  0.5070280000000  0.3767710000000  0.5167420000000 1.0
C      1  0.3767700000000  0.5167370000000  0.5070270000000 1.0
C      1  0.5167380000000  0.5070240000000  0.3767700000000 1.0
C      1  0.5070260000000  0.6232290000000  0.4832580000000 1.0
C      1  0.4929740000000  0.3767700000000  0.4832650000000 1.0
C      1  0.4929720000000  0.6232300000000  0.5167350000000 1.0
C      1  0.3767710000000  0.4832600000000  0.4929740000000 1.0
C      1  0.6232290000000  0.5167390000000  0.4929720000000 1.0
C      1  0.6232300000000  0.4832630000000  0.5070270000000 1.0
C      1  0.5167390000000  0.4929760000000  0.6232300000000 1.0
C      1  0.4832620000000  0.5070310000000  0.6232290000000 1.0
C      1  0.4832610000000  0.4929690000000  0.3767710000000 1.0
C      1  0.4929740000000  0.3767710000000  0.5167420000000 1.0
C      1  0.6232290000000  0.5167400000000  0.5070260000000 1.0
C      1  0.4832610000000  0.5070240000000  0.3767700000000 1.0
C      1  0.4929720000000  0.6232290000000  0.4832580000000 1.0
C      1  0.5070280000000  0.3767700000000  0.4832650000000 1.0
C      1  0.5070260000000  0.6232300000000  0.5167350000000 1.0
C      1  0.6232300000000  0.4832630000000  0.4929730000000 1.0
C      1  0.3767700000000  0.5167370000000  0.4929730000000 1.0
C      1  0.3767710000000  0.4832610000000  0.5070280000000 1.0
C      1  0.4832620000000  0.4929760000000  0.6232300000000 1.0
C      1  0.5167390000000  0.5070310000000  0.6232290000000 1.0
C      1  0.5167380000000  0.4929700000000  0.3767710000000 1.0
C      1  0.4737510000000  0.6154390000000  0.4720380000000 1.0
C      1  0.6154400000000  0.4720420000000  0.4737530000000 1.0
C      1  0.4720420000000  0.4737550000000  0.6154410000000 1.0
C      1  0.4737530000000  0.3845610000000  0.5279620000000 1.0
C      1  0.5262470000000  0.6154410000000  0.5279550000000 1.0
C      1  0.5262490000000  0.3845600000000  0.4720440000000 1.0
C      1  0.6154400000000  0.5279600000000  0.5262470000000 1.0
C      1  0.3845610000000  0.4720410000000  0.5262490000000 1.0
C      1  0.3845600000000  0.5279570000000  0.4737520000000 1.0
C      1  0.4720410000000  0.5262440000000  0.3845600000000 1.0
C      1  0.5279590000000  0.4737490000000  0.3845610000000 1.0
C      1  0.5279590000000  0.5262510000000  0.6154390000000 1.0
C      1  0.5262470000000  0.6154390000000  0.4720380000000 1.0
C      1  0.3845600000000  0.4720400000000  0.4737530000000 1.0
C      1  0.5279590000000  0.4737560000000  0.6154400000000 1.0
C      1  0.5262490000000  0.3845610000000  0.5279620000000 1.0
C      1  0.4737510000000  0.6154400000000  0.5279560000000 1.0
C      1  0.4737530000000  0.3845590000000  0.4720450000000 1.0
C      1  0.3845600000000  0.5279580000000  0.5262470000000 1.0
C      1  0.6154400000000  0.4720430000000  0.5262480000000 1.0
C      1  0.6154390000000  0.5279590000000  0.4737510000000 1.0
C      1  0.5279580000000  0.5262450000000  0.3845590000000 1.0
C      1  0.4720410000000  0.4737490000000  0.3845610000000 1.0
C      1  0.4720410000000  0.5262510000000  0.6154390000000 1.0
C      1  0.4596120000000  0.6098820000000  0.4927570000000 1.0
C      1  0.6098820000000  0.4927590000000  0.4596130000000 1.0
C      1  0.4927600000000  0.4596160000000  0.6098830000000 1.0
C      1  0.4596140000000  0.3901180000000  0.5072430000000 1.0
C      1  0.5403860000000  0.6098830000000  0.5072370000000 1.0
C      1  0.5403880000000  0.3901180000000  0.4927630000000 1.0
C      1  0.6098820000000  0.5072420000000  0.5403870000000 1.0
C      1  0.3901180000000  0.4927600000000  0.5403880000000 1.0
C      1  0.3901180000000  0.5072380000000  0.4596130000000 1.0
C      1  0.4927590000000  0.5403840000000  0.3901170000000 1.0
C      1  0.5072400000000  0.4596100000000  0.3901190000000 1.0
C      1  0.5072400000000  0.5403900000000  0.6098810000000 1.0
C      1  0.5403860000000  0.6098820000000  0.4927570000000 1.0
C      1  0.3901180000000  0.4927580000000  0.4596130000000 1.0
C      1  0.5072410000000  0.4596160000000  0.6098830000000 1.0
C      1  0.5403880000000  0.3901190000000  0.5072430000000 1.0
C      1  0.4596120000000  0.6098820000000  0.5072380000000 1.0
C      1  0.4596140000000  0.3901170000000  0.4927630000000 1.0
C      1  0.3901180000000  0.5072410000000  0.5403870000000 1.0
C      1  0.6098820000000  0.4927620000000  0.5403870000000 1.0
C      1  0.6098820000000  0.5072400000000  0.4596120000000 1.0
C      1  0.5072400000000  0.5403840000000  0.3901170000000 1.0
C      1  0.4927600000000  0.4596100000000  0.3901190000000 1.0
C      1  0.4927600000000  0.5403900000000  0.6098810000000 1.0
C      1  0.4930420000000  0.4821630000000  0.6211360000000 1.0
C      1  0.4821580000000  0.6211350000000  0.4930380000000 1.0
C      1  0.6211350000000  0.4930420000000  0.4821590000000 1.0
C      1  0.4930410000000  0.5178370000000  0.3788640000000 1.0
C      1  0.5069580000000  0.4821560000000  0.3788650000000 1.0
C      1  0.5069590000000  0.5178440000000  0.6211350000000 1.0
C      1  0.4821610000000  0.3788650000000  0.5069620000000 1.0
C      1  0.5178390000000  0.6211350000000  0.5069550000000 1.0
C      1  0.5178420000000  0.3788650000000  0.4930450000000 1.0
C      1  0.6211350000000  0.5069600000000  0.5178400000000 1.0
C      1  0.3788650000000  0.4930410000000  0.5178410000000 1.0
C      1  0.3788650000000  0.5069570000000  0.4821600000000 1.0
C      1  0.5069590000000  0.4821630000000  0.6211360000000 1.0
C      1  0.5178390000000  0.6211350000000  0.4930380000000 1.0
C      1  0.3788650000000  0.4930400000000  0.4821600000000 1.0
C      1  0.5069580000000  0.5178370000000  0.3788640000000 1.0
C      1  0.4930410000000  0.4821560000000  0.3788650000000 1.0
C      1  0.4930420000000  0.5178440000000  0.6211350000000 1.0
C      1  0.5178420000000  0.3788650000000  0.5069620000000 1.0
C      1  0.4821580000000  0.6211350000000  0.5069550000000 1.0
C      1  0.4821610000000  0.3788650000000  0.4930450000000 1.0
C      1  0.3788650000000  0.5069580000000  0.5178410000000 1.0
C      1  0.6211350000000  0.4930430000000  0.5178400000000 1.0
C      1  0.6211350000000  0.5069590000000  0.4821590000000 1.0
C      1  0.5074890000000  0.5637560000000  0.4222630000000 1.0
C      1  0.5637590000000  0.4222660000000  0.5074910000000 1.0
C      1  0.4222650000000  0.5074910000000  0.5637580000000 1.0
C      1  0.5074900000000  0.4362440000000  0.5777370000000 1.0
C      1  0.4925100000000  0.5637600000000  0.5777340000000 1.0
C      1  0.4925110000000  0.4362400000000  0.4222670000000 1.0
C      1  0.5637570000000  0.5777350000000  0.4925080000000 1.0
C      1  0.4362430000000  0.4222640000000  0.4925130000000 1.0
C      1  0.4362420000000  0.5777350000000  0.5074880000000 1.0
C      1  0.4222650000000  0.4925080000000  0.4362430000000 1.0
C      1  0.5777350000000  0.5074880000000  0.4362420000000 1.0
C      1  0.5777350000000  0.4925130000000  0.5637580000000 1.0
C      1  0.4925100000000  0.5637560000000  0.4222630000000 1.0
C      1  0.4362430000000  0.4222640000000  0.5074920000000 1.0
C      1  0.5777350000000  0.5074920000000  0.5637570000000 1.0
C      1  0.4925110000000  0.4362440000000  0.5777370000000 1.0
C      1  0.5074890000000  0.5637600000000  0.5777340000000 1.0
C      1  0.5074900000000  0.4362400000000  0.4222660000000 1.0
C      1  0.4362410000000  0.5777350000000  0.4925090000000 1.0
C      1  0.5637590000000  0.4222650000000  0.4925120000000 1.0
C      1  0.5637570000000  0.5777360000000  0.5074870000000 1.0
C      1  0.5777350000000  0.4925090000000  0.4362420000000 1.0
C      1  0.4222650000000  0.5074870000000  0.4362420000000 1.0
C      1  0.4222650000000  0.4925120000000  0.5637580000000 1.0
C      1  0.4512710000000  0.5174580000000  0.6103010000000 1.0
C      1  0.5174540000000  0.6103000000000  0.4512680000000 1.0
C      1  0.6103010000000  0.4512720000000  0.5174560000000 1.0
C      1  0.4512710000000  0.4825420000000  0.3897000000000 1.0
C      1  0.5487290000000  0.5174520000000  0.3896980000000 1.0
C      1  0.5487290000000  0.4825490000000  0.6103010000000 1.0
C      1  0.5174560000000  0.3897010000000  0.5487320000000 1.0
C      1  0.4825440000000  0.6103020000000  0.5487260000000 1.0
C      1  0.4825460000000  0.3896970000000  0.4512740000000 1.0
C      1  0.6103000000000  0.5487300000000  0.4825430000000 1.0
C      1  0.3897000000000  0.4512690000000  0.4825470000000 1.0
C      1  0.3896990000000  0.5487290000000  0.5174540000000 1.0
C      1  0.5487290000000  0.5174580000000  0.6103000000000 1.0
C      1  0.4825440000000  0.6102990000000  0.4512680000000 1.0
C      1  0.3896990000000  0.4512700000000  0.5174570000000 1.0
C      1  0.5487290000000  0.4825420000000  0.3896990000000 1.0
C      1  0.4512700000000  0.5174510000000  0.3896990000000 1.0
C      1  0.4512710000000  0.4825480000000  0.6103020000000 1.0
C      1  0.4825460000000  0.3897000000000  0.5487320000000 1.0
C      1  0.5174540000000  0.6103020000000  0.5487260000000 1.0
C      1  0.5174560000000  0.3896980000000  0.4512740000000 1.0
C      1  0.3896990000000  0.5487280000000  0.4825440000000 1.0
C      1  0.6103010000000  0.4512710000000  0.4825460000000 1.0
C      1  0.6103010000000  0.5487310000000  0.5174530000000 1.0
C      1  0.5859760000000  0.4454080000000  0.4750690000000 1.0
C      1  0.4454080000000  0.4750690000000  0.5859760000000 1.0
C      1  0.4750670000000  0.5859740000000  0.4454050000000 1.0
C      1  0.5859750000000  0.5545940000000  0.5249310000000 1.0
C      1  0.4140250000000  0.4454080000000  0.5249340000000 1.0
C      1  0.4140240000000  0.5545910000000  0.4750660000000 1.0
C      1  0.4454070000000  0.5249300000000  0.4140240000000 1.0
C      1  0.5545920000000  0.4750660000000  0.4140250000000 1.0
C      1  0.5545920000000  0.5249350000000  0.5859750000000 1.0
C      1  0.4750680000000  0.4140260000000  0.5545950000000 1.0
C      1  0.5249320000000  0.5859770000000  0.5545900000000 1.0
C      1  0.5249330000000  0.4140230000000  0.4454100000000 1.0
C      1  0.4140250000000  0.4454060000000  0.4750690000000 1.0
C      1  0.5545930000000  0.4750700000000  0.5859760000000 1.0
C      1  0.5249320000000  0.5859740000000  0.4454050000000 1.0
C      1  0.4140240000000  0.5545920000000  0.5249310000000 1.0
C      1  0.5859760000000  0.4454090000000  0.5249340000000 1.0
C      1  0.5859750000000  0.5545920000000  0.4750660000000 1.0
C      1  0.5545920000000  0.5249310000000  0.4140240000000 1.0
C      1  0.4454080000000  0.4750650000000  0.4140250000000 1.0
C      1  0.4454080000000  0.5249340000000  0.5859750000000 1.0
C      1  0.5249330000000  0.4140260000000  0.5545950000000 1.0
C      1  0.4750670000000  0.5859770000000  0.5545900000000 1.0
C      1  0.4750680000000  0.4140230000000  0.4454100000000 1.0
C      1  0.5565950000000  0.5352490000000  0.5765030000000 1.0
C      1  0.5352450000000  0.5765060000000  0.5565930000000 1.0
C      1  0.5765040000000  0.5565970000000  0.5352440000000 1.0
C      1  0.5565950000000  0.4647520000000  0.4234960000000 1.0
C      1  0.4434040000000  0.5352430000000  0.4234950000000 1.0
C      1  0.4434050000000  0.4647560000000  0.5765050000000 1.0
C      1  0.5352470000000  0.4234950000000  0.4434070000000 1.0
C      1  0.4647530000000  0.5765020000000  0.4434030000000 1.0
C      1  0.4647550000000  0.4234970000000  0.5565970000000 1.0
C      1  0.5765050000000  0.4434050000000  0.4647550000000 1.0
C      1  0.4234950000000  0.5565930000000  0.4647530000000 1.0
C      1  0.4234960000000  0.4434050000000  0.5352480000000 1.0
C      1  0.4434050000000  0.5352480000000  0.5765030000000 1.0
C      1  0.4647530000000  0.5765060000000  0.5565930000000 1.0
C      1  0.4234950000000  0.5565950000000  0.5352450000000 1.0
C      1  0.4434050000000  0.4647510000000  0.4234970000000 1.0
C      1  0.5565950000000  0.5352440000000  0.4234950000000 1.0
C      1  0.5565960000000  0.4647570000000  0.5765050000000 1.0
C      1  0.4647550000000  0.4234940000000  0.4434070000000 1.0
C      1  0.5352450000000  0.5765030000000  0.4434030000000 1.0
C      1  0.5352470000000  0.4234980000000  0.5565970000000 1.0
C      1  0.4234960000000  0.4434030000000  0.4647560000000 1.0
C      1  0.5765040000000  0.5565950000000  0.4647520000000 1.0
C      1  0.5765050000000  0.4434070000000  0.5352470000000 1.0
C      1  0.5689660000000  0.4310720000000  0.4830820000000 1.0
C      1  0.4310720000000  0.4830810000000  0.5689660000000 1.0
C      1  0.4830790000000  0.5689630000000  0.4310700000000 1.0
C      1  0.5689640000000  0.5689290000000  0.5169180000000 1.0
C      1  0.4310360000000  0.4310720000000  0.5169220000000 1.0
C      1  0.4310340000000  0.5689270000000  0.4830780000000 1.0
C      1  0.4310710000000  0.5169170000000  0.4310350000000 1.0
C      1  0.5689280000000  0.4830790000000  0.4310350000000 1.0
C      1  0.5689280000000  0.5169230000000  0.5689640000000 1.0
C      1  0.4830810000000  0.4310370000000  0.5689300000000 1.0
C      1  0.5169190000000  0.5689670000000  0.5689260000000 1.0
C      1  0.5169200000000  0.4310330000000  0.4310740000000 1.0
C      1  0.4310360000000  0.4310710000000  0.4830820000000 1.0
C      1  0.5689290000000  0.4830830000000  0.5689650000000 1.0
C      1  0.5169190000000  0.5689630000000  0.4310700000000 1.0
C      1  0.4310340000000  0.5689280000000  0.5169180000000 1.0
C      1  0.5689660000000  0.4310730000000  0.5169220000000 1.0
C      1  0.5689640000000  0.5689280000000  0.4830780000000 1.0
C      1  0.5689280000000  0.5169190000000  0.4310340000000 1.0
C      1  0.4310720000000  0.4830780000000  0.4310360000000 1.0
C      1  0.4310720000000  0.5169210000000  0.5689650000000 1.0
C      1  0.5169210000000  0.4310370000000  0.5689300000000 1.0
C      1  0.4830790000000  0.5689670000000  0.5689260000000 1.0
C      1  0.4830800000000  0.4310330000000  0.4310740000000 1.0
C      1  0.6013800000000  0.5145160000000  0.5505510000000 1.0
C      1  0.5145140000000  0.5505550000000  0.6013780000000 1.0
C      1  0.5505510000000  0.6013800000000  0.5145110000000 1.0
C      1  0.6013800000000  0.4854850000000  0.4494480000000 1.0
C      1  0.3986200000000  0.5145120000000  0.4494480000000 1.0
C      1  0.3986210000000  0.4854860000000  0.5505530000000 1.0
C      1  0.5145140000000  0.4494450000000  0.3986220000000 1.0
C      1  0.4854850000000  0.5505490000000  0.3986190000000 1.0
C      1  0.4854870000000  0.4494510000000  0.6013810000000 1.0
C      1  0.5505530000000  0.3986200000000  0.4854890000000 1.0
C      1  0.4494470000000  0.6013790000000  0.4854830000000 1.0
C      1  0.4494490000000  0.3986200000000  0.5145170000000 1.0
C      1  0.3986200000000  0.5145150000000  0.5505520000000 1.0
C      1  0.4854860000000  0.5505550000000  0.6013780000000 1.0
C      1  0.4494470000000  0.6013800000000  0.5145120000000 1.0
C      1  0.3986200000000  0.4854840000000  0.4494490000000 1.0
C      1  0.6013790000000  0.5145140000000  0.4494470000000 1.0
C      1  0.6013800000000  0.4854880000000  0.5505520000000 1.0
C      1  0.4854860000000  0.4494450000000  0.3986220000000 1.0
C      1  0.5145130000000  0.5505490000000  0.3986190000000 1.0
C      1  0.5145150000000  0.4494510000000  0.6013810000000 1.0
C      1  0.4494490000000  0.3986200000000  0.4854890000000 1.0
C      1  0.5505510000000  0.6013800000000  0.4854830000000 1.0
C      1  0.5505530000000  0.3986210000000  0.5145170000000 1.0
C      1  0.6167890000000  0.4583710000000  0.5070290000000 1.0
C      1  0.4583700000000  0.5070310000000  0.6167890000000 1.0
C      1  0.5070270000000  0.6167880000000  0.4583660000000 1.0
C      1  0.6167880000000  0.5416310000000  0.4929700000000 1.0
C      1  0.3832120000000  0.4583680000000  0.4929730000000 1.0
C      1  0.3832110000000  0.5416300000000  0.5070270000000 1.0
C      1  0.4583690000000  0.4929680000000  0.3832120000000 1.0
C      1  0.5416300000000  0.5070250000000  0.3832110000000 1.0
C      1  0.5416310000000  0.4929750000000  0.6167890000000 1.0
C      1  0.5070290000000  0.3832130000000  0.5416340000000 1.0
C      1  0.4929710000000  0.6167900000000  0.5416280000000 1.0
C      1  0.4929730000000  0.3832100000000  0.4583730000000 1.0
C      1  0.3832120000000  0.4583690000000  0.5070300000000 1.0
C      1  0.5416310000000  0.5070320000000  0.6167880000000 1.0
C      1  0.4929710000000  0.6167880000000  0.4583660000000 1.0
C      1  0.3832110000000  0.5416290000000  0.4929710000000 1.0
C      1  0.6167890000000  0.4583700000000  0.4929730000000 1.0
C      1  0.6167880000000  0.5416320000000  0.5070270000000 1.0
C      1  0.5416300000000  0.4929690000000  0.3832110000000 1.0
C      1  0.4583690000000  0.5070250000000  0.3832110000000 1.0
C      1  0.4583700000000  0.4929750000000  0.6167890000000 1.0
C      1  0.4929730000000  0.3832120000000  0.5416340000000 1.0
C      1  0.5070270000000  0.6167900000000  0.5416270000000 1.0
C      1  0.5070290000000  0.3832100000000  0.4583730000000 1.0
C      1  0.5274740000000  0.5544380000000  0.5985620000000 1.0
C      1  0.5544340000000  0.5985640000000  0.5274710000000 1.0
C      1  0.5985630000000  0.5274760000000  0.5544340000000 1.0
C      1  0.5274740000000  0.4455630000000  0.4014380000000 1.0
C      1  0.4725250000000  0.5544320000000  0.4014350000000 1.0
C      1  0.4725270000000  0.4455680000000  0.5985650000000 1.0
C      1  0.5544360000000  0.4014370000000  0.4725290000000 1.0
C      1  0.4455640000000  0.5985620000000  0.4725240000000 1.0
C      1  0.4455660000000  0.4014370000000  0.5274770000000 1.0
C      1  0.5985630000000  0.4725250000000  0.4455660000000 1.0
C      1  0.4014360000000  0.5274710000000  0.4455650000000 1.0
C      1  0.4014370000000  0.4725270000000  0.5544360000000 1.0
C      1  0.4725260000000  0.5544370000000  0.5985620000000 1.0
C      1  0.4455640000000  0.5985640000000  0.5274710000000 1.0
C      1  0.4014360000000  0.5274750000000  0.5544340000000 1.0
C      1  0.4725260000000  0.4455620000000  0.4014380000000 1.0
C      1  0.5274730000000  0.5544320000000  0.4014350000000 1.0
C      1  0.5274750000000  0.4455680000000  0.5985650000000 1.0
C      1  0.4455660000000  0.4014350000000  0.4725290000000 1.0
C      1  0.5544340000000  0.5985630000000  0.4725230000000 1.0
C      1  0.5544360000000  0.4014380000000  0.5274760000000 1.0
C      1  0.4014370000000  0.4725240000000  0.4455660000000 1.0
C      1  0.5985630000000  0.5274730000000  0.4455640000000 1.0
C      1  0.5985640000000  0.4725290000000  0.5544350000000 1.0
C      1  0.4583090000000  0.5593490000000  0.5725820000000 1.0
C      1  0.5593470000000  0.5725830000000  0.4583070000000 1.0
C      1  0.5725840000000  0.4583110000000  0.5593490000000 1.0
C      1  0.4583090000000  0.4406500000000  0.4274180000000 1.0
C      1  0.5416900000000  0.5593460000000  0.4274150000000 1.0
C      1  0.5416920000000  0.4406550000000  0.5725850000000 1.0
C      1  0.5593480000000  0.4274190000000  0.5416930000000 1.0
C      1  0.4406520000000  0.5725840000000  0.5416890000000 1.0
C      1  0.4406530000000  0.4274150000000  0.4583110000000 1.0
C      1  0.5725830000000  0.5416900000000  0.4406510000000 1.0
C      1  0.4274170000000  0.4583070000000  0.4406540000000 1.0
C      1  0.4274160000000  0.5416920000000  0.5593470000000 1.0
C      1  0.5416900000000  0.5593500000000  0.5725820000000 1.0
C      1  0.4406520000000  0.5725820000000  0.4583070000000 1.0
C      1  0.4274170000000  0.4583100000000  0.5593490000000 1.0
C      1  0.5416910000000  0.4406510000000  0.4274180000000 1.0
C      1  0.4583080000000  0.5593450000000  0.4274150000000 1.0
C      1  0.4583100000000  0.4406540000000  0.5725850000000 1.0
C      1  0.4406530000000  0.4274170000000  0.5416930000000 1.0
C      1  0.5593470000000  0.5725850000000  0.5416890000000 1.0
C      1  0.5593480000000  0.4274160000000  0.4583110000000 1.0
C      1  0.4274160000000  0.5416890000000  0.4406520000000 1.0
C      1  0.5725830000000  0.4583080000000  0.4406530000000 1.0
C      1  0.5725830000000  0.5416930000000  0.5593460000000 1.0
C      1  0.4869810000000  0.6200090000000  0.5292310000000 1.0
C      1  0.6200080000000  0.5292350000000  0.4869810000000 1.0
C      1  0.5292350000000  0.4869860000000  0.6200080000000 1.0
C      1  0.4869830000000  0.3799910000000  0.4707690000000 1.0
C      1  0.5130170000000  0.6200070000000  0.4707620000000 1.0
C      1  0.5130190000000  0.3799930000000  0.5292380000000 1.0
C      1  0.6200080000000  0.4707670000000  0.5130180000000 1.0
C      1  0.3799920000000  0.5292340000000  0.5130170000000 1.0
C      1  0.3799920000000  0.4707640000000  0.4869830000000 1.0
C      1  0.5292340000000  0.5130150000000  0.3799920000000 1.0
C      1  0.4707650000000  0.4869790000000  0.3799920000000 1.0
C      1  0.4707660000000  0.5130210000000  0.6200080000000 1.0
C      1  0.5130170000000  0.6200090000000  0.5292310000000 1.0
C      1  0.3799920000000  0.5292330000000  0.4869820000000 1.0
C      1  0.4707660000000  0.4869850000000  0.6200080000000 1.0
C      1  0.5130190000000  0.3799910000000  0.4707690000000 1.0
C      1  0.4869810000000  0.6200070000000  0.4707620000000 1.0
C      1  0.4869830000000  0.3799930000000  0.5292380000000 1.0
C      1  0.3799920000000  0.4707650000000  0.5130190000000 1.0
C      1  0.6200080000000  0.5292360000000  0.5130170000000 1.0
C      1  0.6200080000000  0.4707660000000  0.4869830000000 1.0
C      1  0.4707650000000  0.5130140000000  0.3799920000000 1.0
C      1  0.5292340000000  0.4869790000000  0.3799920000000 1.0
C      1  0.5292350000000  0.5130210000000  0.6200080000000 1.0
C      1  0.4491640000000  0.4518010000000  0.4234680000000 1.0
C      1  0.4518040000000  0.4234640000000  0.4491660000000 1.0
C      1  0.4234670000000  0.4491610000000  0.4518050000000 1.0
C      1  0.4491630000000  0.5481990000000  0.5765330000000 1.0
C      1  0.5508370000000  0.4518060000000  0.5765350000000 1.0
C      1  0.5508360000000  0.5481950000000  0.4234650000000 1.0
C      1  0.4518020000000  0.5765350000000  0.5508350000000 1.0
C      1  0.5481980000000  0.4234680000000  0.5508380000000 1.0
C      1  0.5481960000000  0.5765330000000  0.4491610000000 1.0
C      1  0.4234660000000  0.5508370000000  0.5481960000000 1.0
C      1  0.5765340000000  0.4491660000000  0.5481980000000 1.0
C      1  0.5765330000000  0.5508360000000  0.4518010000000 1.0
C      1  0.5508370000000  0.4518010000000  0.4234670000000 1.0
C      1  0.5481970000000  0.4234650000000  0.4491660000000 1.0
C      1  0.5765340000000  0.4491630000000  0.4518040000000 1.0
C      1  0.5508360000000  0.5481990000000  0.5765320000000 1.0
C      1  0.4491640000000  0.4518050000000  0.5765350000000 1.0
C      1  0.4491630000000  0.5481940000000  0.4234650000000 1.0
C      1  0.5481960000000  0.5765350000000  0.5508340000000 1.0
C      1  0.4518040000000  0.4234670000000  0.5508390000000 1.0
C      1  0.4518020000000  0.5765320000000  0.4491620000000 1.0
C      1  0.5765330000000  0.5508380000000  0.5481950000000 1.0
C      1  0.4234670000000  0.4491640000000  0.5481990000000 1.0
C      1  0.4234660000000  0.5508340000000  0.4518020000000 1.0
C      1  0.4749410000000  0.4012020000000  0.5488010000000 1.0
C      1  0.4012000000000  0.5487970000000  0.4749390000000 1.0
C      1  0.5487980000000  0.4749380000000  0.4012010000000 1.0
C      1  0.4749390000000  0.5987980000000  0.4511990000000 1.0
C      1  0.5250610000000  0.4012000000000  0.4512040000000 1.0
C      1  0.5250590000000  0.5988010000000  0.5487960000000 1.0
C      1  0.4012010000000  0.4512010000000  0.5250620000000 1.0
C      1  0.5987990000000  0.5488000000000  0.5250580000000 1.0
C      1  0.5988000000000  0.4512020000000  0.4749410000000 1.0
C      1  0.5487980000000  0.5250630000000  0.5987980000000 1.0
C      1  0.4512020000000  0.4749420000000  0.5988000000000 1.0
C      1  0.4512010000000  0.5250570000000  0.4012000000000 1.0
C      1  0.5250610000000  0.4012020000000  0.5488010000000 1.0
C      1  0.5987990000000  0.5487990000000  0.4749380000000 1.0
C      1  0.4512020000000  0.4749370000000  0.4012020000000 1.0
C      1  0.5250590000000  0.5987980000000  0.4511990000000 1.0
C      1  0.4749410000000  0.4011990000000  0.4512040000000 1.0
C      1  0.4749390000000  0.5988000000000  0.5487960000000 1.0
C      1  0.5988000000000  0.4512030000000  0.5250610000000 1.0
C      1  0.4012000000000  0.5487980000000  0.5250590000000 1.0
C      1  0.4012010000000  0.4512000000000  0.4749420000000 1.0
C      1  0.4512020000000  0.5250620000000  0.5987990000000 1.0
C      1  0.5487990000000  0.4749430000000  0.5988000000000 1.0
C      1  0.5487980000000  0.5250580000000  0.4012000000000 1.0
C      1  0.5604740000000  0.5128690000000  0.5804790000000 1.0
C      1  0.5128660000000  0.5804810000000  0.5604720000000 1.0
C      1  0.5804790000000  0.5604750000000  0.5128640000000 1.0
C      1  0.5604740000000  0.4871320000000  0.4195210000000 1.0
C      1  0.4395250000000  0.5128640000000  0.4195200000000 1.0
C      1  0.4395260000000  0.4871350000000  0.5804800000000 1.0
C      1  0.5128670000000  0.4195190000000  0.4395280000000 1.0
C      1  0.4871330000000  0.5804780000000  0.4395240000000 1.0
C      1  0.4871350000000  0.4195220000000  0.5604770000000 1.0
C      1  0.5804800000000  0.4395260000000  0.4871350000000 1.0
C      1  0.4195200000000  0.5604730000000  0.4871320000000 1.0
C      1  0.4195210000000  0.4395250000000  0.5128680000000 1.0
C      1  0.4395260000000  0.5128680000000  0.5804790000000 1.0
C      1  0.4871330000000  0.5804810000000  0.5604720000000 1.0
C      1  0.4195200000000  0.5604740000000  0.5128650000000 1.0
C      1  0.4395260000000  0.4871310000000  0.4195210000000 1.0
C      1  0.5604740000000  0.5128650000000  0.4195200000000 1.0
C      1  0.5604750000000  0.4871370000000  0.5804800000000 1.0
C      1  0.4871340000000  0.4195190000000  0.4395280000000 1.0
C      1  0.5128650000000  0.5804780000000  0.4395240000000 1.0
C      1  0.5128670000000  0.4195220000000  0.5604760000000 1.0
C      1  0.4195210000000  0.4395250000000  0.4871360000000 1.0
C      1  0.5804790000000  0.5604750000000  0.4871320000000 1.0
C      1  0.5804800000000  0.4395270000000  0.5128680000000 1.0
C      1  0.4387950000000  0.4203490000000  0.5534400000000 1.0
C      1  0.4203470000000  0.5534360000000  0.4387930000000 1.0
C      1  0.5534380000000  0.4387920000000  0.4203490000000 1.0
C      1  0.4387930000000  0.5796500000000  0.4465600000000 1.0
C      1  0.5612070000000  0.4203470000000  0.4465640000000 1.0
C      1  0.5612060000000  0.5796530000000  0.5534360000000 1.0
C      1  0.4203490000000  0.4465630000000  0.5612080000000 1.0
C      1  0.5796520000000  0.5534400000000  0.5612050000000 1.0
C      1  0.5796530000000  0.4465610000000  0.4387950000000 1.0
C      1  0.5534370000000  0.5612090000000  0.5796510000000 1.0
C      1  0.4465630000000  0.4387950000000  0.5796540000000 1.0
C      1  0.4465610000000  0.5612040000000  0.4203460000000 1.0
C      1  0.5612070000000  0.4203500000000  0.5534400000000 1.0
C      1  0.5796520000000  0.5534370000000  0.4387920000000 1.0
C      1  0.4465630000000  0.4387910000000  0.4203490000000 1.0
C      1  0.5612050000000  0.5796520000000  0.4465600000000 1.0
C      1  0.4387940000000  0.4203460000000  0.4465640000000 1.0
C      1  0.4387930000000  0.5796530000000  0.5534360000000 1.0
C      1  0.5796530000000  0.4465640000000  0.5612080000000 1.0
C      1  0.4203470000000  0.5534390000000  0.5612050000000 1.0
C      1  0.4203480000000  0.4465600000000  0.4387950000000 1.0
C      1  0.4465620000000  0.5612080000000  0.5796510000000 1.0
C      1  0.5534390000000  0.4387960000000  0.5796540000000 1.0
C      1  0.5534370000000  0.5612050000000  0.4203460000000 1.0
C      1  0.4090500000000  0.5071050000000  0.4431630000000 1.0
C      1  0.5071070000000  0.4431600000000  0.4090520000000 1.0
C      1  0.4431640000000  0.4090500000000  0.5071100000000 1.0
C      1  0.4090510000000  0.4928940000000  0.5568380000000 1.0
C      1  0.5909500000000  0.5071100000000  0.5568370000000 1.0
C      1  0.5909500000000  0.4928920000000  0.4431630000000 1.0
C      1  0.5071070000000  0.5568400000000  0.5909480000000 1.0
C      1  0.4928940000000  0.4431650000000  0.5909510000000 1.0
C      1  0.4928920000000  0.5568340000000  0.4090490000000 1.0
C      1  0.4431620000000  0.5909490000000  0.4928910000000 1.0
C      1  0.5568380000000  0.4090510000000  0.4928950000000 1.0
C      1  0.5568360000000  0.5909500000000  0.5071040000000 1.0
C      1  0.5909500000000  0.5071060000000  0.4431620000000 1.0
C      1  0.4928930000000  0.4431600000000  0.4090520000000 1.0
C      1  0.5568380000000  0.4090510000000  0.5071090000000 1.0
C      1  0.5909500000000  0.4928950000000  0.5568370000000 1.0
C      1  0.4090500000000  0.5071080000000  0.5568370000000 1.0
C      1  0.4090500000000  0.4928910000000  0.4431630000000 1.0
C      1  0.4928920000000  0.5568400000000  0.5909480000000 1.0
C      1  0.5071080000000  0.4431650000000  0.5909510000000 1.0
C      1  0.5071060000000  0.5568350000000  0.4090490000000 1.0
C      1  0.5568360000000  0.5909500000000  0.4928900000000 1.0
C      1  0.4431640000000  0.4090500000000  0.4928960000000 1.0
C      1  0.4431620000000  0.5909490000000  0.5071050000000 1.0
C      1  0.5312660000000  0.5669020000000  0.4337030000000 1.0
C      1  0.5669040000000  0.4337070000000  0.5312680000000 1.0
C      1  0.4337050000000  0.5312680000000  0.5669020000000 1.0
C      1  0.5312680000000  0.4330990000000  0.5662960000000 1.0
C      1  0.4687330000000  0.5669050000000  0.5662930000000 1.0
C      1  0.4687340000000  0.4330950000000  0.4337070000000 1.0
C      1  0.5669020000000  0.5662940000000  0.4687310000000 1.0
C      1  0.4330970000000  0.4337040000000  0.4687350000000 1.0
C      1  0.4330960000000  0.5662950000000  0.5312650000000 1.0
C      1  0.4337050000000  0.4687310000000  0.4330980000000 1.0
C      1  0.5662940000000  0.5312660000000  0.4330960000000 1.0
C      1  0.5662950000000  0.4687360000000  0.5669040000000 1.0
C      1  0.4687320000000  0.5669010000000  0.4337040000000 1.0
C      1  0.4330980000000  0.4337060000000  0.5312690000000 1.0
C      1  0.5662950000000  0.5312690000000  0.5669020000000 1.0
C      1  0.4687340000000  0.4330980000000  0.5662970000000 1.0
C      1  0.5312660000000  0.5669050000000  0.5662930000000 1.0
C      1  0.5312670000000  0.4330950000000  0.4337070000000 1.0
C      1  0.4330960000000  0.5662930000000  0.4687320000000 1.0
C      1  0.5669040000000  0.4337050000000  0.4687350000000 1.0
C      1  0.5669020000000  0.5662960000000  0.5312650000000 1.0
C      1  0.5662950000000  0.4687320000000  0.4330970000000 1.0
C      1  0.4337050000000  0.5312640000000  0.4330960000000 1.0
C      1  0.4337060000000  0.4687340000000  0.5669040000000 1.0
C      1  0.6160590000000  0.5139120000000  0.5295960000000 1.0
C      1  0.5139110000000  0.5296000000000  0.6160580000000 1.0
C      1  0.5295950000000  0.6160590000000  0.5139070000000 1.0
C      1  0.6160590000000  0.4860900000000  0.4704040000000 1.0
C      1  0.3839410000000  0.5139090000000  0.4704040000000 1.0
C      1  0.3839410000000  0.4860890000000  0.5295970000000 1.0
C      1  0.5139100000000  0.4704010000000  0.3839420000000 1.0
C      1  0.4860890000000  0.5295930000000  0.3839400000000 1.0
C      1  0.4860900000000  0.4704070000000  0.6160600000000 1.0
C      1  0.5295970000000  0.3839410000000  0.4860920000000 1.0
C      1  0.4704030000000  0.6160580000000  0.4860860000000 1.0
C      1  0.4704050000000  0.3839410000000  0.5139140000000 1.0
C      1  0.3839410000000  0.5139100000000  0.5295960000000 1.0
C      1  0.4860890000000  0.5295990000000  0.6160580000000 1.0
C      1  0.4704030000000  0.6160590000000  0.5139080000000 1.0
C      1  0.3839410000000  0.4860880000000  0.4704040000000 1.0
C      1  0.6160590000000  0.5139110000000  0.4704030000000 1.0
C      1  0.6160590000000  0.4860910000000  0.5295960000000 1.0
C      1  0.4860890000000  0.4704000000000  0.3839420000000 1.0
C      1  0.5139100000000  0.5295930000000  0.3839400000000 1.0
C      1  0.5139110000000  0.4704070000000  0.6160600000000 1.0
C      1  0.4704050000000  0.3839400000000  0.4860930000000 1.0
C      1  0.5295950000000  0.6160590000000  0.4860860000000 1.0
C      1  0.5295970000000  0.3839420000000  0.5139140000000 1.0
C      1  0.4999990000000  0.5846180000000  0.4412310000000 1.0
C      1  0.5846210000000  0.4412350000000  0.5000010000000 1.0
C      1  0.4412340000000  0.5000020000000  0.5846200000000 1.0
C      1  0.5000010000000  0.4153820000000  0.5587690000000 1.0
C      1  0.4999990000000  0.5846220000000  0.5587640000000 1.0
C      1  0.5000010000000  0.4153780000000  0.4412360000000 1.0
C      1  0.5846190000000  0.5587670000000  0.4999980000000 1.0
C      1  0.4153810000000  0.4412330000000  0.5000020000000 1.0
C      1  0.4153800000000  0.5587660000000  0.4999990000000 1.0
C      1  0.5587660000000  0.4999980000000  0.4153800000000 1.0
C      1  0.4412340000000  0.4999970000000  0.4153800000000 1.0
C      1  0.5587660000000  0.5000030000000  0.5846200000000 1.0
END
