TITL C-3292282-5471-26 5.75231824777119 1000000 -3982.02961036476 0 0 540 (Th) n - 1
REM
REM in /scratch/bkarasulu/Only-C240/Try5-OnlyC540
REM
REM
REM
REM
REM
REM ./C.cell (44946988efc617adc4c7d3233e6f571a)
REM
REM compiler GCC version 9.2.1 20190827 (Red Hat 9.2.1-1)
REM options -cpp -mtune=generic -march=x86-64 -g -O0 -fpre-include=/usr/include/finclude/math-vector-fortran.h
REM seed -946345863 1293352060 1141345779 1604470665 -1019732700 -182151396 1542065198 1831790 19677354 -263857095 -17258318 1598261197 -1770011047 1960819530 -1651424637 1918685184 923550780 -755454336 -637632361 1897250009 1920020074 -1458570055 -1128559643 -2069048894 -1921209732 -300388125 2076984311 406471087 705425711 -1305875290 1533083742 -682368651 1766014076
REM
CELL 1.54180  100.00000  100.00000  100.00000   90.00000   90.00000   90.00000
LATT -1
SFAC C  
C      1  0.5273820000000  0.4157300000000  0.5431400000000 1.0
C      1  0.4157290000000  0.5431390000000  0.5273810000000 1.0
C      1  0.5431390000000  0.5273810000000  0.4157290000000 1.0
C      1  0.4726180000000  0.5842710000000  0.5431380000000 1.0
C      1  0.5273810000000  0.5842700000000  0.4568600000000 1.0
C      1  0.4726190000000  0.4157290000000  0.4568620000000 1.0
C      1  0.5842710000000  0.4568620000000  0.5273820000000 1.0
C      1  0.4157300000000  0.4568600000000  0.4726190000000 1.0
C      1  0.5842700000000  0.5431390000000  0.4726180000000 1.0
C      1  0.4568610000000  0.4726170000000  0.4157300000000 1.0
C      1  0.5431390000000  0.4726190000000  0.5842710000000 1.0
C      1  0.4568610000000  0.5273820000000  0.5842700000000 1.0
C      1  0.5273820000000  0.4157290000000  0.4568620000000 1.0
C      1  0.4157290000000  0.5431380000000  0.4726180000000 1.0
C      1  0.5431390000000  0.5273830000000  0.5842700000000 1.0
C      1  0.4726180000000  0.5842700000000  0.4568600000000 1.0
C      1  0.5273810000000  0.5842710000000  0.5431380000000 1.0
C      1  0.4726190000000  0.4157300000000  0.5431400000000 1.0
C      1  0.5842710000000  0.4568610000000  0.4726190000000 1.0
C      1  0.4157300000000  0.4568610000000  0.5273820000000 1.0
C      1  0.5842700000000  0.5431400000000  0.5273810000000 1.0
C      1  0.4568610000000  0.4726190000000  0.5842710000000 1.0
C      1  0.5431390000000  0.4726180000000  0.4157300000000 1.0
C      1  0.4568610000000  0.5273810000000  0.4157290000000 1.0
C      1  0.5073740000000  0.3866900000000  0.4870380000000 1.0
C      1  0.3866910000000  0.4870370000000  0.5073730000000 1.0
C      1  0.4870380000000  0.5073720000000  0.3866900000000 1.0
C      1  0.4926260000000  0.6133090000000  0.4870360000000 1.0
C      1  0.5073720000000  0.6133100000000  0.5129620000000 1.0
C      1  0.4926280000000  0.3866910000000  0.5129640000000 1.0
C      1  0.6133090000000  0.5129630000000  0.5073730000000 1.0
C      1  0.3866900000000  0.5129620000000  0.4926270000000 1.0
C      1  0.6133100000000  0.4870380000000  0.4926270000000 1.0
C      1  0.5129630000000  0.4926260000000  0.3866910000000 1.0
C      1  0.4870370000000  0.4926280000000  0.6133100000000 1.0
C      1  0.5129620000000  0.5073740000000  0.6133090000000 1.0
C      1  0.5073740000000  0.3866910000000  0.5129640000000 1.0
C      1  0.3866910000000  0.4870370000000  0.4926270000000 1.0
C      1  0.4870370000000  0.5073740000000  0.6133090000000 1.0
C      1  0.4926260000000  0.6133100000000  0.5129620000000 1.0
C      1  0.5073720000000  0.6133090000000  0.4870360000000 1.0
C      1  0.4926280000000  0.3866900000000  0.4870380000000 1.0
C      1  0.6133090000000  0.5129630000000  0.4926270000000 1.0
C      1  0.3866900000000  0.5129620000000  0.5073730000000 1.0
C      1  0.6133100000000  0.4870380000000  0.5073730000000 1.0
C      1  0.5129620000000  0.4926280000000  0.6133100000000 1.0
C      1  0.4870380000000  0.4926260000000  0.3866910000000 1.0
C      1  0.5129630000000  0.5073720000000  0.3866900000000 1.0
C      1  0.5820520000000  0.4672710000000  0.5368700000000 1.0
C      1  0.4672700000000  0.5368700000000  0.5820520000000 1.0
C      1  0.5368690000000  0.5820520000000  0.4672690000000 1.0
C      1  0.4179480000000  0.5327300000000  0.5368690000000 1.0
C      1  0.5820520000000  0.5327300000000  0.4631310000000 1.0
C      1  0.4179480000000  0.4672690000000  0.4631310000000 1.0
C      1  0.5327300000000  0.4631320000000  0.5820530000000 1.0
C      1  0.4672710000000  0.4631300000000  0.4179480000000 1.0
C      1  0.5327300000000  0.5368690000000  0.4179480000000 1.0
C      1  0.4631310000000  0.4179470000000  0.4672710000000 1.0
C      1  0.5368700000000  0.4179480000000  0.5327310000000 1.0
C      1  0.4631300000000  0.5820520000000  0.5327290000000 1.0
C      1  0.5820520000000  0.4672700000000  0.4631310000000 1.0
C      1  0.4672700000000  0.5368680000000  0.4179470000000 1.0
C      1  0.5368690000000  0.5820530000000  0.5327290000000 1.0
C      1  0.4179480000000  0.5327290000000  0.4631300000000 1.0
C      1  0.5820520000000  0.5327310000000  0.5368690000000 1.0
C      1  0.4179480000000  0.4672700000000  0.5368690000000 1.0
C      1  0.5327300000000  0.4631300000000  0.4179480000000 1.0
C      1  0.4672700000000  0.4631310000000  0.5820520000000 1.0
C      1  0.5327290000000  0.5368700000000  0.5820520000000 1.0
C      1  0.4631310000000  0.4179480000000  0.5327310000000 1.0
C      1  0.5368700000000  0.4179480000000  0.4672710000000 1.0
C      1  0.4631300000000  0.5820520000000  0.4672690000000 1.0
C      1  0.4207760000000  0.4430970000000  0.5258280000000 1.0
C      1  0.4430970000000  0.5258260000000  0.4207750000000 1.0
C      1  0.5258280000000  0.4207750000000  0.4430980000000 1.0
C      1  0.5792240000000  0.5569040000000  0.5258270000000 1.0
C      1  0.4207750000000  0.5569030000000  0.4741720000000 1.0
C      1  0.5792250000000  0.4430970000000  0.4741730000000 1.0
C      1  0.5569040000000  0.4741720000000  0.4207760000000 1.0
C      1  0.4430970000000  0.4741730000000  0.5792240000000 1.0
C      1  0.5569030000000  0.5258290000000  0.5792240000000 1.0
C      1  0.4741720000000  0.5792240000000  0.4430960000000 1.0
C      1  0.5258270000000  0.5792250000000  0.5569030000000 1.0
C      1  0.4741730000000  0.4207760000000  0.5569040000000 1.0
C      1  0.4207760000000  0.4430960000000  0.4741730000000 1.0
C      1  0.4430960000000  0.5258280000000  0.5792240000000 1.0
C      1  0.5258280000000  0.4207760000000  0.5569040000000 1.0
C      1  0.5792240000000  0.5569030000000  0.4741720000000 1.0
C      1  0.4207750000000  0.5569030000000  0.5258270000000 1.0
C      1  0.5792250000000  0.4430970000000  0.5258280000000 1.0
C      1  0.5569030000000  0.4741740000000  0.5792250000000 1.0
C      1  0.4430970000000  0.4741710000000  0.4207760000000 1.0
C      1  0.5569030000000  0.5258270000000  0.4207760000000 1.0
C      1  0.4741720000000  0.5792250000000  0.5569020000000 1.0
C      1  0.5258270000000  0.5792240000000  0.4430960000000 1.0
C      1  0.4741730000000  0.4207750000000  0.4430970000000 1.0
C      1  0.4165740000000  0.5074470000000  0.5439000000000 1.0
C      1  0.5074470000000  0.5439000000000  0.4165740000000 1.0
C      1  0.5439010000000  0.4165740000000  0.5074470000000 1.0
C      1  0.5834260000000  0.4925540000000  0.5439010000000 1.0
C      1  0.4165740000000  0.4925520000000  0.4560990000000 1.0
C      1  0.5834260000000  0.5074470000000  0.4560990000000 1.0
C      1  0.4925540000000  0.4560980000000  0.4165740000000 1.0
C      1  0.5074470000000  0.4561000000000  0.5834260000000 1.0
C      1  0.4925530000000  0.5439010000000  0.5834260000000 1.0
C      1  0.4560990000000  0.5834260000000  0.5074460000000 1.0
C      1  0.5439000000000  0.5834260000000  0.4925530000000 1.0
C      1  0.4561000000000  0.4165740000000  0.4925540000000 1.0
C      1  0.4165740000000  0.5074460000000  0.4560990000000 1.0
C      1  0.5074460000000  0.5439020000000  0.5834260000000 1.0
C      1  0.5439010000000  0.4165740000000  0.4925540000000 1.0
C      1  0.5834260000000  0.4925530000000  0.4561000000000 1.0
C      1  0.4165740000000  0.4925530000000  0.5439010000000 1.0
C      1  0.5834260000000  0.5074480000000  0.5439010000000 1.0
C      1  0.4925530000000  0.4561000000000  0.5834260000000 1.0
C      1  0.5074470000000  0.4560990000000  0.4165740000000 1.0
C      1  0.4925530000000  0.5439000000000  0.4165740000000 1.0
C      1  0.4560990000000  0.5834260000000  0.4925530000000 1.0
C      1  0.5439000000000  0.5834260000000  0.5074460000000 1.0
C      1  0.4561000000000  0.4165740000000  0.5074470000000 1.0
C      1  0.4927860000000  0.5526920000000  0.4393190000000 1.0
C      1  0.5526930000000  0.4393200000000  0.4927870000000 1.0
C      1  0.4393200000000  0.4927860000000  0.5526930000000 1.0
C      1  0.5072140000000  0.4473070000000  0.4393200000000 1.0
C      1  0.4927860000000  0.4473080000000  0.5606810000000 1.0
C      1  0.5072130000000  0.5526930000000  0.5606800000000 1.0
C      1  0.4473070000000  0.5606800000000  0.4927850000000 1.0
C      1  0.5526920000000  0.5606810000000  0.5072130000000 1.0
C      1  0.4473080000000  0.4393190000000  0.5072140000000 1.0
C      1  0.5606800000000  0.5072150000000  0.5526930000000 1.0
C      1  0.4393200000000  0.5072130000000  0.4473070000000 1.0
C      1  0.5606800000000  0.4927860000000  0.4473070000000 1.0
C      1  0.4927860000000  0.5526930000000  0.5606800000000 1.0
C      1  0.5526930000000  0.4393200000000  0.5072150000000 1.0
C      1  0.4393200000000  0.4927850000000  0.4473070000000 1.0
C      1  0.5072140000000  0.4473080000000  0.5606810000000 1.0
C      1  0.4927870000000  0.4473070000000  0.4393200000000 1.0
C      1  0.5072140000000  0.5526920000000  0.4393190000000 1.0
C      1  0.4473070000000  0.5606800000000  0.5072130000000 1.0
C      1  0.5526920000000  0.5606810000000  0.4927860000000 1.0
C      1  0.4473080000000  0.4393190000000  0.4927870000000 1.0
C      1  0.5606800000000  0.5072140000000  0.4473070000000 1.0
C      1  0.4393200000000  0.5072140000000  0.5526930000000 1.0
C      1  0.5606800000000  0.4927870000000  0.5526930000000 1.0
C      1  0.4149480000000  0.4377790000000  0.5138460000000 1.0
C      1  0.4377800000000  0.5138450000000  0.4149480000000 1.0
C      1  0.5138460000000  0.4149470000000  0.4377800000000 1.0
C      1  0.5850520000000  0.5622210000000  0.5138450000000 1.0
C      1  0.4149470000000  0.5622200000000  0.4861540000000 1.0
C      1  0.5850530000000  0.4377800000000  0.4861550000000 1.0
C      1  0.5622210000000  0.4861540000000  0.4149480000000 1.0
C      1  0.4377800000000  0.4861550000000  0.5850520000000 1.0
C      1  0.5622200000000  0.5138470000000  0.5850520000000 1.0
C      1  0.4861540000000  0.5850520000000  0.4377790000000 1.0
C      1  0.5138450000000  0.5850530000000  0.5622200000000 1.0
C      1  0.4861550000000  0.4149480000000  0.5622210000000 1.0
C      1  0.4149480000000  0.4377790000000  0.4861550000000 1.0
C      1  0.4377790000000  0.5138460000000  0.5850520000000 1.0
C      1  0.5138460000000  0.4149480000000  0.5622210000000 1.0
C      1  0.5850520000000  0.5622210000000  0.4861540000000 1.0
C      1  0.4149470000000  0.5622200000000  0.5138450000000 1.0
C      1  0.5850530000000  0.4377800000000  0.5138460000000 1.0
C      1  0.5622200000000  0.4861550000000  0.5850520000000 1.0
C      1  0.4377800000000  0.4861530000000  0.4149480000000 1.0
C      1  0.5622200000000  0.5138450000000  0.4149480000000 1.0
C      1  0.4861540000000  0.5850530000000  0.5622200000000 1.0
C      1  0.5138450000000  0.5850520000000  0.4377790000000 1.0
C      1  0.4861550000000  0.4149470000000  0.4377800000000 1.0
C      1  0.4264710000000  0.5072400000000  0.4192300000000 1.0
C      1  0.5072420000000  0.4192300000000  0.4264710000000 1.0
C      1  0.4192310000000  0.4264700000000  0.5072420000000 1.0
C      1  0.5735300000000  0.4927580000000  0.4192310000000 1.0
C      1  0.4264710000000  0.4927590000000  0.5807690000000 1.0
C      1  0.5735290000000  0.5072430000000  0.5807690000000 1.0
C      1  0.4927580000000  0.5807690000000  0.4264700000000 1.0
C      1  0.5072410000000  0.5807700000000  0.5735290000000 1.0
C      1  0.4927590000000  0.4192310000000  0.5735300000000 1.0
C      1  0.5807690000000  0.5735300000000  0.5072410000000 1.0
C      1  0.4192300000000  0.5735290000000  0.4927580000000 1.0
C      1  0.5807700000000  0.4264710000000  0.4927590000000 1.0
C      1  0.4264700000000  0.5072420000000  0.5807690000000 1.0
C      1  0.5072420000000  0.4192310000000  0.5735300000000 1.0
C      1  0.4192310000000  0.4264700000000  0.4927590000000 1.0
C      1  0.5735290000000  0.4927600000000  0.5807700000000 1.0
C      1  0.4264710000000  0.4927570000000  0.4192310000000 1.0
C      1  0.5735290000000  0.5072410000000  0.4192310000000 1.0
C      1  0.4927580000000  0.5807700000000  0.5735290000000 1.0
C      1  0.5072410000000  0.5807690000000  0.4264700000000 1.0
C      1  0.4927590000000  0.4192300000000  0.4264710000000 1.0
C      1  0.5807690000000  0.5735300000000  0.4927580000000 1.0
C      1  0.4192300000000  0.5735290000000  0.5072410000000 1.0
C      1  0.5807700000000  0.4264710000000  0.5072420000000 1.0
C      1  0.5560700000000  0.4249110000000  0.4873430000000 1.0
C      1  0.4249100000000  0.4873420000000  0.5560690000000 1.0
C      1  0.4873420000000  0.5560690000000  0.4249100000000 1.0
C      1  0.4439300000000  0.5750890000000  0.4873410000000 1.0
C      1  0.5560690000000  0.5750900000000  0.5126570000000 1.0
C      1  0.4439310000000  0.4249100000000  0.5126580000000 1.0
C      1  0.5750890000000  0.5126590000000  0.5560690000000 1.0
C      1  0.4249110000000  0.5126570000000  0.4439300000000 1.0
C      1  0.5750900000000  0.4873420000000  0.4439310000000 1.0
C      1  0.5126580000000  0.4439300000000  0.4249110000000 1.0
C      1  0.4873420000000  0.4439310000000  0.5750900000000 1.0
C      1  0.5126570000000  0.5560700000000  0.5750890000000 1.0
C      1  0.5560700000000  0.4249110000000  0.5126590000000 1.0
C      1  0.4249110000000  0.4873410000000  0.4439310000000 1.0
C      1  0.4873420000000  0.5560700000000  0.5750890000000 1.0
C      1  0.4439300000000  0.5750890000000  0.5126570000000 1.0
C      1  0.5560690000000  0.5750900000000  0.4873420000000 1.0
C      1  0.4439310000000  0.4249100000000  0.4873430000000 1.0
C      1  0.5750900000000  0.5126580000000  0.4439310000000 1.0
C      1  0.4249100000000  0.5126580000000  0.5560690000000 1.0
C      1  0.5750890000000  0.4873430000000  0.5560700000000 1.0
C      1  0.5126580000000  0.4439310000000  0.5750900000000 1.0
C      1  0.4873430000000  0.4439300000000  0.4249110000000 1.0
C      1  0.5126580000000  0.5560690000000  0.4249100000000 1.0
C      1  0.3947610000000  0.5069200000000  0.5179030000000 1.0
C      1  0.5069210000000  0.5179030000000  0.3947600000000 1.0
C      1  0.5179040000000  0.3947610000000  0.5069220000000 1.0
C      1  0.6052390000000  0.4930800000000  0.5179040000000 1.0
C      1  0.3947610000000  0.4930790000000  0.4820960000000 1.0
C      1  0.6052390000000  0.5069210000000  0.4820960000000 1.0
C      1  0.4930800000000  0.4820950000000  0.3947610000000 1.0
C      1  0.5069210000000  0.4820970000000  0.6052400000000 1.0
C      1  0.4930790000000  0.5179050000000  0.6052390000000 1.0
C      1  0.4820960000000  0.6052390000000  0.5069200000000 1.0
C      1  0.5179030000000  0.6052390000000  0.4930780000000 1.0
C      1  0.4820970000000  0.3947600000000  0.4930800000000 1.0
C      1  0.3947610000000  0.5069200000000  0.4820960000000 1.0
C      1  0.5069200000000  0.5179050000000  0.6052390000000 1.0
C      1  0.5179040000000  0.3947610000000  0.4930800000000 1.0
C      1  0.6052390000000  0.4930800000000  0.4820970000000 1.0
C      1  0.3947610000000  0.4930790000000  0.5179040000000 1.0
C      1  0.6052390000000  0.5069210000000  0.5179040000000 1.0
C      1  0.4930790000000  0.4820970000000  0.6052400000000 1.0
C      1  0.5069210000000  0.4820950000000  0.3947610000000 1.0
C      1  0.4930790000000  0.5179030000000  0.3947600000000 1.0
C      1  0.4820960000000  0.6052390000000  0.4930780000000 1.0
C      1  0.5179030000000  0.6052400000000  0.5069200000000 1.0
C      1  0.4820970000000  0.3947610000000  0.5069220000000 1.0
C      1  0.4835260000000  0.4070150000000  0.5409670000000 1.0
C      1  0.4070140000000  0.5409660000000  0.4835250000000 1.0
C      1  0.5409670000000  0.4835250000000  0.4070150000000 1.0
C      1  0.5164730000000  0.5929860000000  0.5409660000000 1.0
C      1  0.4835250000000  0.5929850000000  0.4590330000000 1.0
C      1  0.5164750000000  0.4070140000000  0.4590340000000 1.0
C      1  0.5929860000000  0.4590340000000  0.4835270000000 1.0
C      1  0.4070150000000  0.4590330000000  0.5164740000000 1.0
C      1  0.5929850000000  0.5409670000000  0.5164740000000 1.0
C      1  0.4590330000000  0.5164730000000  0.4070140000000 1.0
C      1  0.5409660000000  0.5164750000000  0.5929850000000 1.0
C      1  0.4590330000000  0.4835270000000  0.5929860000000 1.0
C      1  0.4835270000000  0.4070140000000  0.4590340000000 1.0
C      1  0.4070140000000  0.5409660000000  0.5164730000000 1.0
C      1  0.5409670000000  0.4835270000000  0.5929860000000 1.0
C      1  0.5164740000000  0.5929850000000  0.4590330000000 1.0
C      1  0.4835250000000  0.5929860000000  0.5409660000000 1.0
C      1  0.5164740000000  0.4070150000000  0.5409670000000 1.0
C      1  0.5929860000000  0.4590340000000  0.5164750000000 1.0
C      1  0.4070150000000  0.4590330000000  0.4835260000000 1.0
C      1  0.5929850000000  0.5409670000000  0.4835260000000 1.0
C      1  0.4590330000000  0.5164750000000  0.5929850000000 1.0
C      1  0.5409670000000  0.5164730000000  0.4070140000000 1.0
C      1  0.4590340000000  0.4835250000000  0.4070150000000 1.0
C      1  0.5520010000000  0.4330360000000  0.5480100000000 1.0
C      1  0.4330350000000  0.5480090000000  0.5520010000000 1.0
C      1  0.5480090000000  0.5520010000000  0.4330350000000 1.0
C      1  0.4479980000000  0.5669650000000  0.5480080000000 1.0
C      1  0.5520010000000  0.5669650000000  0.4519900000000 1.0
C      1  0.4479990000000  0.4330340000000  0.4519910000000 1.0
C      1  0.5669650000000  0.4519920000000  0.5520020000000 1.0
C      1  0.4330350000000  0.4519900000000  0.4479990000000 1.0
C      1  0.5669650000000  0.5480090000000  0.4479990000000 1.0
C      1  0.4519910000000  0.4479980000000  0.4330350000000 1.0
C      1  0.5480090000000  0.4480000000000  0.5669660000000 1.0
C      1  0.4519910000000  0.5520010000000  0.5669650000000 1.0
C      1  0.5520020000000  0.4330350000000  0.4519920000000 1.0
C      1  0.4330350000000  0.5480080000000  0.4479980000000 1.0
C      1  0.5480090000000  0.5520020000000  0.5669650000000 1.0
C      1  0.4479990000000  0.5669640000000  0.4519900000000 1.0
C      1  0.5520010000000  0.5669660000000  0.5480090000000 1.0
C      1  0.4479990000000  0.4330350000000  0.5480100000000 1.0
C      1  0.5669650000000  0.4519910000000  0.4479990000000 1.0
C      1  0.4330350000000  0.4519910000000  0.5520010000000 1.0
C      1  0.5669650000000  0.5480100000000  0.5520010000000 1.0
C      1  0.4519910000000  0.4479990000000  0.5669650000000 1.0
C      1  0.5480090000000  0.4479990000000  0.4330350000000 1.0
C      1  0.4519910000000  0.5520000000000  0.4330340000000 1.0
C      1  0.5293650000000  0.5163780000000  0.6001980000000 1.0
C      1  0.5163760000000  0.6001980000000  0.5293640000000 1.0
C      1  0.6001980000000  0.5293660000000  0.5163770000000 1.0
C      1  0.4706350000000  0.4836240000000  0.6001980000000 1.0
C      1  0.5293660000000  0.4836230000000  0.3998020000000 1.0
C      1  0.4706350000000  0.5163760000000  0.3998020000000 1.0
C      1  0.4836240000000  0.3998020000000  0.5293660000000 1.0
C      1  0.5163770000000  0.3998020000000  0.4706360000000 1.0
C      1  0.4836230000000  0.6001980000000  0.4706340000000 1.0
C      1  0.3998020000000  0.4706340000000  0.5163770000000 1.0
C      1  0.6001980000000  0.4706350000000  0.4836240000000 1.0
C      1  0.3998020000000  0.5293650000000  0.4836230000000 1.0
C      1  0.5293650000000  0.5163760000000  0.3998020000000 1.0
C      1  0.5163760000000  0.6001980000000  0.4706340000000 1.0
C      1  0.6001980000000  0.5293660000000  0.4836230000000 1.0
C      1  0.4706350000000  0.4836220000000  0.3998020000000 1.0
C      1  0.5293650000000  0.4836240000000  0.6001980000000 1.0
C      1  0.4706340000000  0.5163770000000  0.6001980000000 1.0
C      1  0.4836240000000  0.3998020000000  0.4706360000000 1.0
C      1  0.5163770000000  0.3998020000000  0.5293660000000 1.0
C      1  0.4836230000000  0.6001980000000  0.5293640000000 1.0
C      1  0.3998020000000  0.4706340000000  0.4836230000000 1.0
C      1  0.6001980000000  0.4706350000000  0.5163770000000 1.0
C      1  0.3998020000000  0.5293650000000  0.5163760000000 1.0
C      1  0.4758470000000  0.5973370000000  0.4824560000000 1.0
C      1  0.5973370000000  0.4824580000000  0.4758480000000 1.0
C      1  0.4824570000000  0.4758480000000  0.5973370000000 1.0
C      1  0.5241530000000  0.4026630000000  0.4824580000000 1.0
C      1  0.4758480000000  0.4026630000000  0.5175440000000 1.0
C      1  0.5241520000000  0.5973370000000  0.5175420000000 1.0
C      1  0.4026630000000  0.5175420000000  0.4758470000000 1.0
C      1  0.5973370000000  0.5175440000000  0.5241520000000 1.0
C      1  0.4026630000000  0.4824570000000  0.5241520000000 1.0
C      1  0.5175420000000  0.5241530000000  0.5973370000000 1.0
C      1  0.4824570000000  0.5241510000000  0.4026630000000 1.0
C      1  0.5175430000000  0.4758470000000  0.4026630000000 1.0
C      1  0.4758470000000  0.5973370000000  0.5175420000000 1.0
C      1  0.5973370000000  0.4824580000000  0.5241530000000 1.0
C      1  0.4824580000000  0.4758470000000  0.4026630000000 1.0
C      1  0.5241530000000  0.4026630000000  0.5175440000000 1.0
C      1  0.4758480000000  0.4026630000000  0.4824580000000 1.0
C      1  0.5241520000000  0.5973370000000  0.4824560000000 1.0
C      1  0.4026630000000  0.5175420000000  0.5241520000000 1.0
C      1  0.5973370000000  0.5175430000000  0.4758480000000 1.0
C      1  0.4026630000000  0.4824560000000  0.4758480000000 1.0
C      1  0.5175430000000  0.5241520000000  0.4026630000000 1.0
C      1  0.4824570000000  0.5241530000000  0.5973370000000 1.0
C      1  0.5175430000000  0.4758490000000  0.5973370000000 1.0
C      1  0.5877560000000  0.4816790000000  0.4650750000000 1.0
C      1  0.4816790000000  0.4650760000000  0.5877570000000 1.0
C      1  0.4650740000000  0.5877560000000  0.4816780000000 1.0
C      1  0.4122440000000  0.5183200000000  0.4650750000000 1.0
C      1  0.5877560000000  0.5183220000000  0.5349250000000 1.0
C      1  0.4122440000000  0.4816790000000  0.5349250000000 1.0
C      1  0.5183210000000  0.5349260000000  0.5877560000000 1.0
C      1  0.4816790000000  0.5349240000000  0.4122430000000 1.0
C      1  0.5183220000000  0.4650740000000  0.4122440000000 1.0
C      1  0.5349260000000  0.4122440000000  0.4816800000000 1.0
C      1  0.4650750000000  0.4122440000000  0.5183220000000 1.0
C      1  0.5349250000000  0.5877570000000  0.5183200000000 1.0
C      1  0.5877560000000  0.4816800000000  0.5349250000000 1.0
C      1  0.4816790000000  0.4650740000000  0.4122440000000 1.0
C      1  0.4650740000000  0.5877560000000  0.5183200000000 1.0
C      1  0.4122440000000  0.5183210000000  0.5349250000000 1.0
C      1  0.5877560000000  0.5183210000000  0.4650750000000 1.0
C      1  0.4122440000000  0.4816780000000  0.4650750000000 1.0
C      1  0.5183210000000  0.5349240000000  0.4122430000000 1.0
C      1  0.4816780000000  0.5349260000000  0.5877560000000 1.0
C      1  0.5183210000000  0.4650760000000  0.5877570000000 1.0
C      1  0.5349260000000  0.4122440000000  0.5183220000000 1.0
C      1  0.4650750000000  0.4122430000000  0.4816800000000 1.0
C      1  0.5349250000000  0.5877560000000  0.4816780000000 1.0
C      1  0.4315710000000  0.5633770000000  0.5319970000000 1.0
C      1  0.5633770000000  0.5319980000000  0.4315710000000 1.0
C      1  0.5319980000000  0.4315720000000  0.5633780000000 1.0
C      1  0.5684290000000  0.4366240000000  0.5319990000000 1.0
C      1  0.4315720000000  0.4366220000000  0.4680020000000 1.0
C      1  0.5684280000000  0.5633770000000  0.4680020000000 1.0
C      1  0.4366230000000  0.4680010000000  0.4315720000000 1.0
C      1  0.5633770000000  0.4680030000000  0.5684290000000 1.0
C      1  0.4366230000000  0.5319980000000  0.5684280000000 1.0
C      1  0.4680010000000  0.5684290000000  0.5633760000000 1.0
C      1  0.5319980000000  0.5684280000000  0.4366220000000 1.0
C      1  0.4680030000000  0.4315710000000  0.4366230000000 1.0
C      1  0.4315710000000  0.5633760000000  0.4680010000000 1.0
C      1  0.5633770000000  0.5319990000000  0.5684280000000 1.0
C      1  0.5319990000000  0.4315710000000  0.4366240000000 1.0
C      1  0.5684290000000  0.4366230000000  0.4680030000000 1.0
C      1  0.4315720000000  0.4366230000000  0.5319980000000 1.0
C      1  0.5684280000000  0.5633780000000  0.5319980000000 1.0
C      1  0.4366230000000  0.4680020000000  0.5684290000000 1.0
C      1  0.5633770000000  0.4680020000000  0.4315720000000 1.0
C      1  0.4366230000000  0.5319970000000  0.4315710000000 1.0
C      1  0.4680020000000  0.5684280000000  0.4366220000000 1.0
C      1  0.5319970000000  0.5684290000000  0.5633770000000 1.0
C      1  0.4680020000000  0.4315720000000  0.5633780000000 1.0
C      1  0.4638520000000  0.5484900000000  0.4253280000000 1.0
C      1  0.5484920000000  0.4253290000000  0.4638530000000 1.0
C      1  0.4253290000000  0.4638520000000  0.5484910000000 1.0
C      1  0.5361490000000  0.4515080000000  0.4253290000000 1.0
C      1  0.4638520000000  0.4515090000000  0.5746720000000 1.0
C      1  0.5361480000000  0.5484920000000  0.5746710000000 1.0
C      1  0.4515080000000  0.5746710000000  0.4638510000000 1.0
C      1  0.5484910000000  0.5746720000000  0.5361480000000 1.0
C      1  0.4515090000000  0.4253290000000  0.5361490000000 1.0
C      1  0.5746710000000  0.5361490000000  0.5484910000000 1.0
C      1  0.4253290000000  0.5361470000000  0.4515080000000 1.0
C      1  0.5746720000000  0.4638520000000  0.4515090000000 1.0
C      1  0.4638510000000  0.5484920000000  0.5746710000000 1.0
C      1  0.5484920000000  0.4253290000000  0.5361490000000 1.0
C      1  0.4253290000000  0.4638510000000  0.4515090000000 1.0
C      1  0.5361480000000  0.4515100000000  0.5746720000000 1.0
C      1  0.4638520000000  0.4515080000000  0.4253290000000 1.0
C      1  0.5361480000000  0.5484910000000  0.4253280000000 1.0
C      1  0.4515080000000  0.5746710000000  0.5361470000000 1.0
C      1  0.5484910000000  0.5746710000000  0.4638510000000 1.0
C      1  0.4515090000000  0.4253280000000  0.4638520000000 1.0
C      1  0.5746710000000  0.5361480000000  0.4515090000000 1.0
C      1  0.4253280000000  0.5361480000000  0.5484910000000 1.0
C      1  0.5746710000000  0.4638530000000  0.5484920000000 1.0
C      1  0.5926320000000  0.5519930000000  0.5070680000000 1.0
C      1  0.5519920000000  0.5070690000000  0.5926330000000 1.0
C      1  0.5070680000000  0.5926330000000  0.5519920000000 1.0
C      1  0.4073680000000  0.4480070000000  0.5070690000000 1.0
C      1  0.5926330000000  0.4480080000000  0.4929320000000 1.0
C      1  0.4073670000000  0.5519920000000  0.4929310000000 1.0
C      1  0.4480070000000  0.4929320000000  0.5926330000000 1.0
C      1  0.5519930000000  0.4929310000000  0.4073680000000 1.0
C      1  0.4480070000000  0.5070670000000  0.4073670000000 1.0
C      1  0.4929320000000  0.4073680000000  0.5519940000000 1.0
C      1  0.5070690000000  0.4073670000000  0.4480080000000 1.0
C      1  0.4929310000000  0.5926320000000  0.4480060000000 1.0
C      1  0.5926320000000  0.5519930000000  0.4929310000000 1.0
C      1  0.5519930000000  0.5070680000000  0.4073680000000 1.0
C      1  0.5070680000000  0.5926320000000  0.4480060000000 1.0
C      1  0.4073680000000  0.4480070000000  0.4929320000000 1.0
C      1  0.5926330000000  0.4480080000000  0.5070690000000 1.0
C      1  0.4073670000000  0.5519920000000  0.5070680000000 1.0
C      1  0.4480080000000  0.4929310000000  0.4073670000000 1.0
C      1  0.5519930000000  0.4929330000000  0.5926330000000 1.0
C      1  0.4480070000000  0.5070690000000  0.5926320000000 1.0
C      1  0.4929320000000  0.4073670000000  0.4480080000000 1.0
C      1  0.5070690000000  0.4073680000000  0.5519940000000 1.0
C      1  0.4929310000000  0.5926330000000  0.5519920000000 1.0
C      1  0.5592570000000  0.5447720000000  0.4363250000000 1.0
C      1  0.5447730000000  0.4363260000000  0.5592580000000 1.0
C      1  0.4363250000000  0.5592570000000  0.5447720000000 1.0
C      1  0.4407430000000  0.4552270000000  0.4363260000000 1.0
C      1  0.5592580000000  0.4552290000000  0.5636750000000 1.0
C      1  0.4407420000000  0.5447730000000  0.5636740000000 1.0
C      1  0.4552270000000  0.5636750000000  0.5592570000000 1.0
C      1  0.5447720000000  0.5636740000000  0.4407420000000 1.0
C      1  0.4552280000000  0.4363250000000  0.4407430000000 1.0
C      1  0.5636750000000  0.4407430000000  0.5447730000000 1.0
C      1  0.4363260000000  0.4407420000000  0.4552280000000 1.0
C      1  0.5636740000000  0.5592570000000  0.4552270000000 1.0
C      1  0.5592570000000  0.5447730000000  0.5636740000000 1.0
C      1  0.5447730000000  0.4363250000000  0.4407430000000 1.0
C      1  0.4363250000000  0.5592570000000  0.4552270000000 1.0
C      1  0.4407430000000  0.4552280000000  0.5636750000000 1.0
C      1  0.5592580000000  0.4552270000000  0.4363260000000 1.0
C      1  0.4407420000000  0.5447710000000  0.4363250000000 1.0
C      1  0.4552270000000  0.5636740000000  0.4407420000000 1.0
C      1  0.5447720000000  0.5636750000000  0.5592570000000 1.0
C      1  0.4552280000000  0.4363260000000  0.5592580000000 1.0
C      1  0.5636750000000  0.4407430000000  0.4552280000000 1.0
C      1  0.4363260000000  0.4407430000000  0.5447730000000 1.0
C      1  0.5636740000000  0.5592580000000  0.5447720000000 1.0
C      1  0.4732040000000  0.5586000000000  0.4273260000000 1.0
C      1  0.5586010000000  0.4273270000000  0.4732050000000 1.0
C      1  0.4273270000000  0.4732040000000  0.5586010000000 1.0
C      1  0.5267960000000  0.4413990000000  0.4273270000000 1.0
C      1  0.4732050000000  0.4414000000000  0.5726740000000 1.0
C      1  0.5267950000000  0.5586010000000  0.5726730000000 1.0
C      1  0.4413990000000  0.5726730000000  0.4732040000000 1.0
C      1  0.5586000000000  0.5726740000000  0.5267950000000 1.0
C      1  0.4414000000000  0.4273270000000  0.5267960000000 1.0
C      1  0.5726730000000  0.5267970000000  0.5586000000000 1.0
C      1  0.4273270000000  0.5267950000000  0.4413990000000 1.0
C      1  0.5726730000000  0.4732040000000  0.4414000000000 1.0
C      1  0.4732040000000  0.5586010000000  0.5726730000000 1.0
C      1  0.5586010000000  0.4273270000000  0.5267960000000 1.0
C      1  0.4273270000000  0.4732030000000  0.4414000000000 1.0
C      1  0.5267960000000  0.4414000000000  0.5726740000000 1.0
C      1  0.4732050000000  0.4413990000000  0.4273270000000 1.0
C      1  0.5267950000000  0.5586000000000  0.4273260000000 1.0
C      1  0.4413990000000  0.5726730000000  0.5267950000000 1.0
C      1  0.5586000000000  0.5726730000000  0.4732040000000 1.0
C      1  0.4414000000000  0.4273260000000  0.4732050000000 1.0
C      1  0.5726730000000  0.5267960000000  0.4413990000000 1.0
C      1  0.4273270000000  0.5267960000000  0.5586000000000 1.0
C      1  0.5726730000000  0.4732050000000  0.5586010000000 1.0
C      1  0.5071300000000  0.4316370000000  0.5805980000000 1.0
C      1  0.4316360000000  0.5805970000000  0.5071290000000 1.0
C      1  0.5805970000000  0.5071290000000  0.4316370000000 1.0
C      1  0.4928700000000  0.5683640000000  0.5805960000000 1.0
C      1  0.5071290000000  0.5683630000000  0.4194020000000 1.0
C      1  0.4928710000000  0.4316360000000  0.4194040000000 1.0
C      1  0.5683640000000  0.4194030000000  0.5071300000000 1.0
C      1  0.4316370000000  0.4194020000000  0.4928710000000 1.0
C      1  0.5683630000000  0.5805970000000  0.4928700000000 1.0
C      1  0.4194030000000  0.4928690000000  0.4316360000000 1.0
C      1  0.5805970000000  0.4928720000000  0.5683640000000 1.0
C      1  0.4194030000000  0.5071300000000  0.5683630000000 1.0
C      1  0.5071300000000  0.4316360000000  0.4194040000000 1.0
C      1  0.4316360000000  0.5805970000000  0.4928700000000 1.0
C      1  0.5805970000000  0.5071310000000  0.5683640000000 1.0
C      1  0.4928700000000  0.5683630000000  0.4194020000000 1.0
C      1  0.5071290000000  0.5683640000000  0.5805960000000 1.0
C      1  0.4928710000000  0.4316370000000  0.5805980000000 1.0
C      1  0.5683640000000  0.4194030000000  0.4928710000000 1.0
C      1  0.4316370000000  0.4194030000000  0.5071300000000 1.0
C      1  0.5683630000000  0.5805980000000  0.5071290000000 1.0
C      1  0.4194030000000  0.4928710000000  0.5683630000000 1.0
C      1  0.5805970000000  0.4928700000000  0.4316370000000 1.0
C      1  0.4194030000000  0.5071280000000  0.4316360000000 1.0
C      1  0.4730400000000  0.4929160000000  0.3894860000000 1.0
C      1  0.4929180000000  0.3894860000000  0.4730410000000 1.0
C      1  0.3894860000000  0.4730390000000  0.4929170000000 1.0
C      1  0.5269600000000  0.5070820000000  0.3894860000000 1.0
C      1  0.4730400000000  0.5070840000000  0.6105140000000 1.0
C      1  0.5269600000000  0.4929180000000  0.6105140000000 1.0
C      1  0.5070820000000  0.6105140000000  0.4730390000000 1.0
C      1  0.4929160000000  0.6105140000000  0.5269590000000 1.0
C      1  0.5070840000000  0.3894860000000  0.5269610000000 1.0
C      1  0.6105140000000  0.5269610000000  0.4929170000000 1.0
C      1  0.3894860000000  0.5269600000000  0.5070820000000 1.0
C      1  0.6105140000000  0.4730410000000  0.5070830000000 1.0
C      1  0.4730400000000  0.4929180000000  0.6105140000000 1.0
C      1  0.4929180000000  0.3894860000000  0.5269610000000 1.0
C      1  0.3894860000000  0.4730390000000  0.5070830000000 1.0
C      1  0.5269600000000  0.5070840000000  0.6105140000000 1.0
C      1  0.4730400000000  0.5070820000000  0.3894860000000 1.0
C      1  0.5269600000000  0.4929160000000  0.3894860000000 1.0
C      1  0.5070820000000  0.6105140000000  0.5269590000000 1.0
C      1  0.4929160000000  0.6105140000000  0.4730390000000 1.0
C      1  0.5070840000000  0.3894860000000  0.4730410000000 1.0
C      1  0.6105140000000  0.5269610000000  0.5070830000000 1.0
C      1  0.3894860000000  0.5269590000000  0.4929170000000 1.0
C      1  0.6105140000000  0.4730400000000  0.4929180000000 1.0
C      1  0.4503840000000  0.4999990000000  0.4444970000000 1.0
C      1  0.4444960000000  0.5496160000000  0.4999990000000 1.0
C      1  0.5555040000000  0.4503840000000  0.5000010000000 1.0
C      1  0.5496160000000  0.5000000000000  0.4444970000000 1.0
C      1  0.4503840000000  0.5000000000000  0.5555030000000 1.0
C      1  0.5496160000000  0.5000010000000  0.5555030000000 1.0
C      1  0.5000000000000  0.5555030000000  0.4503830000000 1.0
C      1  0.5000000000000  0.4444970000000  0.5496170000000 1.0
C      1  0.5000000000000  0.4444960000000  0.4503840000000 1.0
C      1  0.5000000000000  0.5555040000000  0.5496160000000 1.0
C      1  0.4444970000000  0.4503840000000  0.5000000000000 1.0
C      1  0.5555030000000  0.5496160000000  0.5000000000000 1.0
END
