TITL C-3292282-5471-55 107.487209340978 1000000 -3815.51567975322 0 0 540 (Th) n - 1
REM
REM in /scratch/bkarasulu/Only-C240/Try5-OnlyC540
REM
REM
REM
REM
REM
REM ./C.cell (44946988efc617adc4c7d3233e6f571a)
REM
REM compiler GCC version 9.2.1 20190827 (Red Hat 9.2.1-1)
REM options -cpp -mtune=generic -march=x86-64 -g -O0 -fpre-include=/usr/include/finclude/math-vector-fortran.h
REM seed -1002041290 -1587788178 538727034 -227252998 1659274902 481018324 2052224409 1554753960 1835886517 -1097337010 545145113 -1410174161 -547038917 1541393131 -742858309 -71627320 -561145175 1348458714 612108876 147368405 1116759489 288975880 -574495265 -794033834 -1049298616 26781090 1317325906 1198940262 1046870247 -1805019845 1131038421 -1363055512 372560203
REM
CELL 1.54180  100.00000  100.00000  100.00000   90.00000   90.00000   90.00000
LATT -1
SFAC C  
C      1  0.4868320000000  0.5688770000000  0.5506470000000 1.0
C      1  0.5506080000000  0.4864430000000  0.5688310000000 1.0
C      1  0.5689960000000  0.5504240000000  0.4866020000000 1.0
C      1  0.4864960000000  0.4311260000000  0.4494370000000 1.0
C      1  0.5134880000000  0.4308090000000  0.5501320000000 1.0
C      1  0.5131840000000  0.5691880000000  0.4497830000000 1.0
C      1  0.5501720000000  0.5135460000000  0.4308490000000 1.0
C      1  0.4498310000000  0.5131260000000  0.5692340000000 1.0
C      1  0.4493890000000  0.4868840000000  0.4310860000000 1.0
C      1  0.5690690000000  0.4495610000000  0.5129600000000 1.0
C      1  0.4309190000000  0.4496590000000  0.4867260000000 1.0
C      1  0.4310150000000  0.5503560000000  0.5137120000000 1.0
C      1  0.5135040000000  0.5688740000000  0.5505630000000 1.0
C      1  0.4498280000000  0.4864540000000  0.5691510000000 1.0
C      1  0.4309310000000  0.5504390000000  0.4870400000000 1.0
C      1  0.5131680000000  0.4311230000000  0.4493530000000 1.0
C      1  0.4868160000000  0.4308120000000  0.5502170000000 1.0
C      1  0.4865120000000  0.5691910000000  0.4498680000000 1.0
C      1  0.4493920000000  0.5135570000000  0.4311690000000 1.0
C      1  0.5506110000000  0.5131160000000  0.5689140000000 1.0
C      1  0.5501690000000  0.4868740000000  0.4307660000000 1.0
C      1  0.4310040000000  0.4495760000000  0.5133980000000 1.0
C      1  0.5689850000000  0.4496440000000  0.4862880000000 1.0
C      1  0.5690810000000  0.5503410000000  0.5132740000000 1.0
C      1  0.5302230000000  0.4719340000000  0.4086010000000 1.0
C      1  0.4087000000000  0.5306140000000  0.4720380000000 1.0
C      1  0.4717390000000  0.4086940000000  0.5303220000000 1.0
C      1  0.5308100000000  0.5280600000000  0.5912050000000 1.0
C      1  0.4691970000000  0.5286350000000  0.4089720000000 1.0
C      1  0.4697700000000  0.4713720000000  0.5912220000000 1.0
C      1  0.4088730000000  0.4694050000000  0.5285420000000 1.0
C      1  0.5911200000000  0.4695620000000  0.4712680000000 1.0
C      1  0.5913070000000  0.5304180000000  0.5281520000000 1.0
C      1  0.4715670000000  0.5913120000000  0.4698580000000 1.0
C      1  0.5284550000000  0.5911160000000  0.5307110000000 1.0
C      1  0.5282400000000  0.4088780000000  0.4691090000000 1.0
C      1  0.4691910000000  0.4719410000000  0.4087950000000 1.0
C      1  0.5911270000000  0.5305950000000  0.4714580000000 1.0
C      1  0.5284340000000  0.4086880000000  0.5301420000000 1.0
C      1  0.4697770000000  0.5280660000000  0.5913990000000 1.0
C      1  0.5302300000000  0.5286280000000  0.4087780000000 1.0
C      1  0.5308030000000  0.4713650000000  0.5910280000000 1.0
C      1  0.5913010000000  0.4693850000000  0.5279620000000 1.0
C      1  0.4086920000000  0.4695820000000  0.4718480000000 1.0
C      1  0.4088800000000  0.5304380000000  0.5287320000000 1.0
C      1  0.5282610000000  0.5913060000000  0.4696780000000 1.0
C      1  0.4717600000000  0.5911220000000  0.5308910000000 1.0
C      1  0.4715450000000  0.4088840000000  0.4692890000000 1.0
C      1  0.5391220000000  0.4163570000000  0.4648170000000 1.0
C      1  0.4649410000000  0.5395070000000  0.4164860000000 1.0
C      1  0.4163730000000  0.4650890000000  0.5393990000000 1.0
C      1  0.5393620000000  0.5836350000000  0.5349330000000 1.0
C      1  0.4606570000000  0.5838610000000  0.4655890000000 1.0
C      1  0.4608590000000  0.4161480000000  0.5346610000000 1.0
C      1  0.4654640000000  0.4605010000000  0.5837360000000 1.0
C      1  0.5345270000000  0.4610160000000  0.4160200000000 1.0
C      1  0.5350680000000  0.5389770000000  0.5837590000000 1.0
C      1  0.4161320000000  0.5349280000000  0.4611330000000 1.0
C      1  0.5838770000000  0.5346660000000  0.5390840000000 1.0
C      1  0.5836190000000  0.4653160000000  0.4603840000000 1.0
C      1  0.4606380000000  0.4163650000000  0.4650670000000 1.0
C      1  0.5345360000000  0.5394990000000  0.4162640000000 1.0
C      1  0.5838680000000  0.4650720000000  0.5388670000000 1.0
C      1  0.4608780000000  0.5836430000000  0.5351830000000 1.0
C      1  0.5391410000000  0.5838520000000  0.4653390000000 1.0
C      1  0.5393430000000  0.4161390000000  0.5344110000000 1.0
C      1  0.5350590000000  0.4604930000000  0.5835140000000 1.0
C      1  0.4649320000000  0.4610230000000  0.4162410000000 1.0
C      1  0.4654730000000  0.5389840000000  0.5839800000000 1.0
C      1  0.5836270000000  0.5349110000000  0.4606010000000 1.0
C      1  0.4163810000000  0.5346840000000  0.5396160000000 1.0
C      1  0.4161240000000  0.4653340000000  0.4609160000000 1.0
C      1  0.5199860000000  0.5583050000000  0.5711100000000 1.0
C      1  0.5711790000000  0.5195640000000  0.5583640000000 1.0
C      1  0.5585990000000  0.5709230000000  0.5197890000000 1.0
C      1  0.5195210000000  0.4416910000000  0.4287640000000 1.0
C      1  0.4804650000000  0.4412520000000  0.5708710000000 1.0
C      1  0.4800280000000  0.5587520000000  0.4292540000000 1.0
C      1  0.5708030000000  0.4804210000000  0.4411850000000 1.0
C      1  0.4291930000000  0.4800710000000  0.5586920000000 1.0
C      1  0.4288250000000  0.5199440000000  0.4417590000000 1.0
C      1  0.5584580000000  0.4290640000000  0.4798390000000 1.0
C      1  0.4415260000000  0.4289540000000  0.5197180000000 1.0
C      1  0.4414170000000  0.5710590000000  0.4806540000000 1.0
C      1  0.4804790000000  0.5583090000000  0.5712360000000 1.0
C      1  0.4291970000000  0.5195790000000  0.5588150000000 1.0
C      1  0.4415420000000  0.5709360000000  0.5201610000000 1.0
C      1  0.4800140000000  0.4416950000000  0.4288900000000 1.0
C      1  0.5199720000000  0.4412480000000  0.5707460000000 1.0
C      1  0.5195350000000  0.5587480000000  0.4291290000000 1.0
C      1  0.4288210000000  0.4804360000000  0.4416360000000 1.0
C      1  0.5711750000000  0.4800560000000  0.5582410000000 1.0
C      1  0.5708080000000  0.5199290000000  0.4413080000000 1.0
C      1  0.4414010000000  0.4290770000000  0.4802110000000 1.0
C      1  0.5585830000000  0.4289410000000  0.5193460000000 1.0
C      1  0.5584740000000  0.5710460000000  0.4802820000000 1.0
C      1  0.4276700000000  0.5592010000000  0.5376260000000 1.0
C      1  0.5373910000000  0.4273560000000  0.5589650000000 1.0
C      1  0.5590830000000  0.5374300000000  0.4274730000000 1.0
C      1  0.4274200000000  0.4408140000000  0.4628350000000 1.0
C      1  0.5725660000000  0.4405670000000  0.5367950000000 1.0
C      1  0.5723430000000  0.5594180000000  0.4627440000000 1.0
C      1  0.5370310000000  0.5726360000000  0.4407990000000 1.0
C      1  0.4629860000000  0.5722740000000  0.5596530000000 1.0
C      1  0.4625920000000  0.4277340000000  0.4405830000000 1.0
C      1  0.5595350000000  0.4625570000000  0.5721500000000 1.0
C      1  0.4404560000000  0.4630220000000  0.4276180000000 1.0
C      1  0.4409250000000  0.5369910000000  0.5727590000000 1.0
C      1  0.5725800000000  0.5591860000000  0.5371650000000 1.0
C      1  0.4629690000000  0.4273640000000  0.5592010000000 1.0
C      1  0.4404650000000  0.5374430000000  0.4278500000000 1.0
C      1  0.5723300000000  0.4407990000000  0.4623740000000 1.0
C      1  0.4276570000000  0.4405820000000  0.5372560000000 1.0
C      1  0.4274340000000  0.5594330000000  0.4632050000000 1.0
C      1  0.4626090000000  0.5726440000000  0.4410350000000 1.0
C      1  0.5374080000000  0.5722660000000  0.5594170000000 1.0
C      1  0.5370140000000  0.4277260000000  0.4403470000000 1.0
C      1  0.4409170000000  0.4625700000000  0.5725270000000 1.0
C      1  0.5590750000000  0.4630090000000  0.4272410000000 1.0
C      1  0.5595440000000  0.5369790000000  0.5723820000000 1.0
C      1  0.4569040000000  0.4211190000000  0.5480330000000 1.0
C      1  0.5478870000000  0.4570000000000  0.4209770000000 1.0
C      1  0.4211330000000  0.5482850000000  0.4571600000000 1.0
C      1  0.4566160000000  0.5788900000000  0.4522410000000 1.0
C      1  0.5434020000000  0.5785800000000  0.5482500000000 1.0
C      1  0.5430780000000  0.4214100000000  0.4514760000000 1.0
C      1  0.5483970000000  0.5429890000000  0.5787170000000 1.0
C      1  0.4516130000000  0.5434910000000  0.4215530000000 1.0
C      1  0.4521030000000  0.4565200000000  0.5787530000000 1.0
C      1  0.4213970000000  0.4517320000000  0.5433400000000 1.0
C      1  0.5785920000000  0.4519850000000  0.4563600000000 1.0
C      1  0.5788780000000  0.5479990000000  0.5431400000000 1.0
C      1  0.5433840000000  0.4211100000000  0.5477590000000 1.0
C      1  0.4516030000000  0.4570110000000  0.4212830000000 1.0
C      1  0.5786030000000  0.5482680000000  0.4566600000000 1.0
C      1  0.5430960000000  0.5788810000000  0.4519670000000 1.0
C      1  0.4569220000000  0.5785900000000  0.5485240000000 1.0
C      1  0.4565980000000  0.4214200000000  0.4517500000000 1.0
C      1  0.4521130000000  0.5430000000000  0.5790230000000 1.0
C      1  0.5478970000000  0.5434800000000  0.4212470000000 1.0
C      1  0.5483870000000  0.4565090000000  0.5784470000000 1.0
C      1  0.5788670000000  0.4517150000000  0.5428400000000 1.0
C      1  0.4211220000000  0.4520010000000  0.4568600000000 1.0
C      1  0.4214080000000  0.5480150000000  0.5436400000000 1.0
C      1  0.5805470000000  0.5435960000000  0.5073870000000 1.0
C      1  0.5076550000000  0.5803810000000  0.5438550000000 1.0
C      1  0.5438850000000  0.5072520000000  0.5804020000000 1.0
C      1  0.5804890000000  0.4563870000000  0.4921010000000 1.0
C      1  0.4195010000000  0.4563570000000  0.5076270000000 1.0
C      1  0.4194630000000  0.5436600000000  0.4928850000000 1.0
C      1  0.5073590000000  0.4196170000000  0.4560970000000 1.0
C      1  0.4926220000000  0.4193470000000  0.5434010000000 1.0
C      1  0.4923630000000  0.5806550000000  0.4566470000000 1.0
C      1  0.5433720000000  0.4927390000000  0.4193210000000 1.0
C      1  0.4566270000000  0.4922460000000  0.5806330000000 1.0
C      1  0.4561170000000  0.5077630000000  0.4196440000000 1.0
C      1  0.4195110000000  0.5436130000000  0.5078990000000 1.0
C      1  0.4926410000000  0.5803830000000  0.5439030000000 1.0
C      1  0.4566280000000  0.5072610000000  0.5806800000000 1.0
C      1  0.4194530000000  0.4564040000000  0.4926130000000 1.0
C      1  0.5805370000000  0.4563400000000  0.5071150000000 1.0
C      1  0.5804990000000  0.5436430000000  0.4923730000000 1.0
C      1  0.4923450000000  0.4196190000000  0.4561450000000 1.0
C      1  0.5076370000000  0.4193450000000  0.5433530000000 1.0
C      1  0.5073780000000  0.5806530000000  0.4565990000000 1.0
C      1  0.4561150000000  0.4927480000000  0.4195980000000 1.0
C      1  0.5438830000000  0.4922370000000  0.5803550000000 1.0
C      1  0.5433730000000  0.5077540000000  0.4193670000000 1.0
C      1  0.4941730000000  0.5563440000000  0.5722810000000 1.0
C      1  0.5722650000000  0.4937530000000  0.5563200000000 1.0
C      1  0.5565580000000  0.5720990000000  0.4939820000000 1.0
C      1  0.4937020000000  0.4436570000000  0.4277570000000 1.0
C      1  0.5062850000000  0.4432060000000  0.5718900000000 1.0
C      1  0.5058400000000  0.5567930000000  0.4280720000000 1.0
C      1  0.5719070000000  0.5062310000000  0.4432220000000 1.0
C      1  0.4280950000000  0.5058940000000  0.5568160000000 1.0
C      1  0.4277340000000  0.4941210000000  0.4436420000000 1.0
C      1  0.5565790000000  0.4278890000000  0.5056580000000 1.0
C      1  0.4434040000000  0.4279390000000  0.4938920000000 1.0
C      1  0.4434590000000  0.5720730000000  0.5064670000000 1.0
C      1  0.5062980000000  0.5563430000000  0.5722430000000 1.0
C      1  0.4280930000000  0.4937690000000  0.5567780000000 1.0
C      1  0.4434210000000  0.5721110000000  0.4943420000000 1.0
C      1  0.5058270000000  0.4436560000000  0.4277190000000 1.0
C      1  0.4941600000000  0.4432070000000  0.5719280000000 1.0
C      1  0.4937150000000  0.5567940000000  0.4281100000000 1.0
C      1  0.4277350000000  0.5062470000000  0.4436800000000 1.0
C      1  0.5722660000000  0.5058790000000  0.5563580000000 1.0
C      1  0.5719050000000  0.4941060000000  0.4431840000000 1.0
C      1  0.4434420000000  0.4279010000000  0.5060180000000 1.0
C      1  0.5565410000000  0.4279270000000  0.4935330000000 1.0
C      1  0.5565960000000  0.5720610000000  0.5061080000000 1.0
C      1  0.5898460000000  0.5357570000000  0.4852530000000 1.0
C      1  0.4855510000000  0.5897790000000  0.5360480000000 1.0
C      1  0.5360050000000  0.4851430000000  0.5897290000000 1.0
C      1  0.5899310000000  0.4642240000000  0.5141750000000 1.0
C      1  0.4100610000000  0.4643340000000  0.4856020000000 1.0
C      1  0.4101620000000  0.5356850000000  0.5149690000000 1.0
C      1  0.4853040000000  0.4102250000000  0.4640450000000 1.0
C      1  0.5146760000000  0.4099990000000  0.5353950000000 1.0
C      1  0.5144690000000  0.5899980000000  0.4645130000000 1.0
C      1  0.5354380000000  0.5148490000000  0.4100440000000 1.0
C      1  0.4645660000000  0.5142960000000  0.5900470000000 1.0
C      1  0.4639910000000  0.4857120000000  0.4101800000000 1.0
C      1  0.4100700000000  0.5357760000000  0.4858240000000 1.0
C      1  0.5146960000000  0.5897750000000  0.5359550000000 1.0
C      1  0.4645620000000  0.4851510000000  0.5899560000000 1.0
C      1  0.4101540000000  0.4642430000000  0.5147470000000 1.0
C      1  0.5898380000000  0.4643140000000  0.4850310000000 1.0
C      1  0.5899390000000  0.5356660000000  0.5143980000000 1.0
C      1  0.5144490000000  0.4102220000000  0.4639520000000 1.0
C      1  0.4855310000000  0.4100020000000  0.5354870000000 1.0
C      1  0.4853240000000  0.5900010000000  0.4646050000000 1.0
C      1  0.4639950000000  0.5148570000000  0.4102710000000 1.0
C      1  0.5360090000000  0.5142880000000  0.5898200000000 1.0
C      1  0.5354340000000  0.4857040000000  0.4099530000000 1.0
C      1  0.4930880000000  0.4668810000000  0.3782490000000 1.0
C      1  0.3782250000000  0.4935960000000  0.4668670000000 1.0
C      1  0.4664660000000  0.3783560000000  0.4932060000000 1.0
C      1  0.4938690000000  0.5331210000000  0.6217920000000 1.0
C      1  0.5061390000000  0.5338780000000  0.3784170000000 1.0
C      1  0.5069040000000  0.4661200000000  0.6215420000000 1.0
C      1  0.3784400000000  0.5064300000000  0.5339060000000 1.0
C      1  0.6215620000000  0.5066130000000  0.4661340000000 1.0
C      1  0.6217730000000  0.4933610000000  0.5330920000000 1.0
C      1  0.4665350000000  0.6216510000000  0.5070070000000 1.0
C      1  0.5334930000000  0.6216840000000  0.4937510000000 1.0
C      1  0.5335060000000  0.3783090000000  0.5060360000000 1.0
C      1  0.5061310000000  0.4668790000000  0.3782080000000 1.0
C      1  0.6215600000000  0.4935700000000  0.4660940000000 1.0
C      1  0.5334650000000  0.3783490000000  0.4929930000000 1.0
C      1  0.5069120000000  0.5331200000000  0.6217510000000 1.0
C      1  0.4930960000000  0.5338800000000  0.3784580000000 1.0
C      1  0.4938610000000  0.4661220000000  0.6215830000000 1.0
C      1  0.6217750000000  0.5064040000000  0.5331330000000 1.0
C      1  0.3782270000000  0.5066390000000  0.4669080000000 1.0
C      1  0.3784380000000  0.4933870000000  0.5338660000000 1.0
C      1  0.5335340000000  0.6216440000000  0.5067940000000 1.0
C      1  0.4664940000000  0.6216910000000  0.4939640000000 1.0
C      1  0.4665070000000  0.3783160000000  0.5062490000000 1.0
C      1  0.4431630000000  0.5769100000000  0.4573860000000 1.0
C      1  0.4572030000000  0.4430560000000  0.5767300000000 1.0
C      1  0.5765850000000  0.4571350000000  0.4429130000000 1.0
C      1  0.4434190000000  0.4231020000000  0.5429750000000 1.0
C      1  0.5565640000000  0.4233580000000  0.4565470000000 1.0
C      1  0.5568550000000  0.5766300000000  0.5430930000000 1.0
C      1  0.4567290000000  0.5569530000000  0.4235440000000 1.0
C      1  0.5432840000000  0.5564650000000  0.5768100000000 1.0
C      1  0.5427840000000  0.4435250000000  0.4229170000000 1.0
C      1  0.5769550000000  0.5428490000000  0.5565990000000 1.0
C      1  0.4230550000000  0.5432190000000  0.4436690000000 1.0
C      1  0.4234050000000  0.4567970000000  0.5568190000000 1.0
C      1  0.5565810000000  0.5768980000000  0.4570250000000 1.0
C      1  0.5432710000000  0.4430470000000  0.5764560000000 1.0
C      1  0.4230450000000  0.4571510000000  0.4434010000000 1.0
C      1  0.5568370000000  0.4230900000000  0.5426140000000 1.0
C      1  0.4431450000000  0.4233700000000  0.4569070000000 1.0
C      1  0.4434360000000  0.5766420000000  0.5434530000000 1.0
C      1  0.5427970000000  0.5569440000000  0.4232700000000 1.0
C      1  0.4572160000000  0.5564740000000  0.5770830000000 1.0
C      1  0.4567160000000  0.4435350000000  0.4231900000000 1.0
C      1  0.4234150000000  0.5428650000000  0.5570870000000 1.0
C      1  0.5765950000000  0.5432030000000  0.4431810000000 1.0
C      1  0.5769450000000  0.4567810000000  0.5563310000000 1.0
C      1  0.4890590000000  0.4625240000000  0.6076150000000 1.0
C      1  0.6075760000000  0.4888250000000  0.4624820000000 1.0
C      1  0.4628350000000  0.6077340000000  0.4891750000000 1.0
C      1  0.4883830000000  0.5374780000000  0.3924570000000 1.0
C      1  0.5116250000000  0.5368040000000  0.6077750000000 1.0
C      1  0.5109330000000  0.4631930000000  0.3921540000000 1.0
C      1  0.6078150000000  0.5111520000000  0.5368340000000 1.0
C      1  0.3921880000000  0.5114060000000  0.4632360000000 1.0
C      1  0.3924210000000  0.4886170000000  0.5374480000000 1.0
C      1  0.4628820000000  0.3922730000000  0.5110610000000 1.0
C      1  0.5370930000000  0.3923360000000  0.4882670000000 1.0
C      1  0.5371890000000  0.6076560000000  0.5114970000000 1.0
C      1  0.5116170000000  0.4625220000000  0.6075430000000 1.0
C      1  0.3921850000000  0.4888480000000  0.4631660000000 1.0
C      1  0.5371180000000  0.6077270000000  0.4889390000000 1.0
C      1  0.5109410000000  0.5374760000000  0.3923850000000 1.0
C      1  0.4890680000000  0.5368070000000  0.6078460000000 1.0
C      1  0.4883750000000  0.4631960000000  0.3922250000000 1.0
C      1  0.3924240000000  0.5111750000000  0.5375180000000 1.0
C      1  0.6075790000000  0.5113830000000  0.4625520000000 1.0
C      1  0.6078120000000  0.4885940000000  0.5367640000000 1.0
C      1  0.5371650000000  0.3922650000000  0.5108250000000 1.0
C      1  0.4628100000000  0.3923440000000  0.4885030000000 1.0
C      1  0.4629070000000  0.6076640000000  0.5117330000000 1.0
C      1  0.5181900000000  0.4857320000000  0.3937930000000 1.0
C      1  0.3938530000000  0.5185850000000  0.4857980000000 1.0
C      1  0.4854500000000  0.3938410000000  0.5182440000000 1.0
C      1  0.5188670000000  0.5142640000000  0.6060890000000 1.0
C      1  0.4811360000000  0.5149290000000  0.3940020000000 1.0
C      1  0.4818070000000  0.4850750000000  0.6061160000000 1.0
C      1  0.3939410000000  0.4814370000000  0.5148760000000 1.0
C      1  0.6060550000000  0.4815060000000  0.4850090000000 1.0
C      1  0.6061520000000  0.5184720000000  0.5143170000000 1.0
C      1  0.4853570000000  0.6061630000000  0.4818490000000 1.0
C      1  0.5146680000000  0.6060440000000  0.5188130000000 1.0
C      1  0.5145250000000  0.3939530000000  0.4810950000000 1.0
C      1  0.4811330000000  0.4857360000000  0.3939110000000 1.0
C      1  0.6060590000000  0.5185630000000  0.4851240000000 1.0
C      1  0.5146430000000  0.3938380000000  0.5181510000000 1.0
C      1  0.4818100000000  0.5142680000000  0.6062070000000 1.0
C      1  0.5181930000000  0.5149250000000  0.3938840000000 1.0
C      1  0.5188640000000  0.4850710000000  0.6059980000000 1.0
C      1  0.6061470000000  0.4814150000000  0.5142020000000 1.0
C      1  0.3938480000000  0.4815280000000  0.4856830000000 1.0
C      1  0.3939450000000  0.5184940000000  0.5149910000000 1.0
C      1  0.5145500000000  0.6061590000000  0.4817560000000 1.0
C      1  0.4854750000000  0.6060470000000  0.5189050000000 1.0
C      1  0.4853320000000  0.3939560000000  0.4811870000000 1.0
C      1  0.6288700000000  0.5070550000000  0.4926040000000 1.0
C      1  0.4930280000000  0.6288700000000  0.5074710000000 1.0
C      1  0.5074550000000  0.4925880000000  0.6288460000000 1.0
C      1  0.6289130000000  0.4929180000000  0.5065770000000 1.0
C      1  0.3710860000000  0.4929890000000  0.4933790000000 1.0
C      1  0.3711320000000  0.5070390000000  0.5074400000000 1.0
C      1  0.4929540000000  0.3711320000000  0.4925740000000 1.0
C      1  0.5070160000000  0.3710860000000  0.5066230000000 1.0
C      1  0.5070020000000  0.6289120000000  0.4933330000000 1.0
C      1  0.5066380000000  0.5074100000000  0.3711090000000 1.0
C      1  0.4933640000000  0.5066080000000  0.6289350000000 1.0
C      1  0.4925430000000  0.4933940000000  0.3711100000000 1.0
C      1  0.3710870000000  0.5070820000000  0.4934230000000 1.0
C      1  0.5070460000000  0.6288680000000  0.5074260000000 1.0
C      1  0.4933620000000  0.4925900000000  0.6288910000000 1.0
C      1  0.3711300000000  0.4929450000000  0.5073960000000 1.0
C      1  0.6288680000000  0.4929620000000  0.4925600000000 1.0
C      1  0.6289140000000  0.5070110000000  0.5066210000000 1.0
C      1  0.5069720000000  0.3711300000000  0.4925290000000 1.0
C      1  0.4929980000000  0.3710880000000  0.5066670000000 1.0
C      1  0.4929840000000  0.6289140000000  0.4933770000000 1.0
C      1  0.4925450000000  0.5074120000000  0.3711540000000 1.0
C      1  0.5074570000000  0.5066060000000  0.6288900000000 1.0
C      1  0.5066360000000  0.4933920000000  0.3710650000000 1.0
C      1  0.4718390000000  0.3982380000000  0.4795110000000 1.0
C      1  0.4794120000000  0.4722350000000  0.3981490000000 1.0
C      1  0.3980800000000  0.4798370000000  0.4721760000000 1.0
C      1  0.4719910000000  0.6017680000000  0.5206670000000 1.0
C      1  0.5280320000000  0.6018890000000  0.4799670000000 1.0
C      1  0.5281380000000  0.3981050000000  0.5198540000000 1.0
C      1  0.4800660000000  0.5277700000000  0.6019800000000 1.0
C      1  0.5199410000000  0.5284000000000  0.3981950000000 1.0
C      1  0.5205810000000  0.4715950000000  0.6016760000000 1.0
C      1  0.3982630000000  0.5201840000000  0.5284710000000 1.0
C      1  0.6017410000000  0.5203380000000  0.4716550000000 1.0
C      1  0.6019150000000  0.4796410000000  0.5276980000000 1.0
C      1  0.5280090000000  0.3982320000000  0.4793320000000 1.0
C      1  0.5199340000000  0.4722300000000  0.3980200000000 1.0
C      1  0.6017370000000  0.4798160000000  0.4715290000000 1.0
C      1  0.5281610000000  0.6017620000000  0.5204890000000 1.0
C      1  0.4718630000000  0.6018950000000  0.4801460000000 1.0
C      1  0.4719680000000  0.3981110000000  0.5200330000000 1.0
C      1  0.5205880000000  0.5277650000000  0.6018510000000 1.0
C      1  0.4794190000000  0.5284050000000  0.3983240000000 1.0
C      1  0.4800590000000  0.4716000000000  0.6018050000000 1.0
C      1  0.6019200000000  0.5201630000000  0.5278240000000 1.0
C      1  0.3980850000000  0.5203590000000  0.4723020000000 1.0
C      1  0.3982580000000  0.4796620000000  0.5283450000000 1.0
C      1  0.4537970000000  0.4317810000000  0.5694510000000 1.0
C      1  0.5692940000000  0.4537880000000  0.4316270000000 1.0
C      1  0.4318530000000  0.5696670000000  0.4540170000000 1.0
C      1  0.4533710000000  0.5682290000000  0.4308440000000 1.0
C      1  0.5466450000000  0.5677860000000  0.5695800000000 1.0
C      1  0.5461880000000  0.4322040000000  0.4301250000000 1.0
C      1  0.5697370000000  0.5461970000000  0.5679310000000 1.0
C      1  0.4302740000000  0.5466360000000  0.4323580000000 1.0
C      1  0.4306950000000  0.4533790000000  0.5680830000000 1.0
C      1  0.4321320000000  0.4303470000000  0.5464150000000 1.0
C      1  0.5678520000000  0.4306220000000  0.4531510000000 1.0
C      1  0.5681630000000  0.5693640000000  0.5464170000000 1.0
C      1  0.5466290000000  0.4317710000000  0.5691560000000 1.0
C      1  0.4302630000000  0.4538030000000  0.4320690000000 1.0
C      1  0.5678680000000  0.5696530000000  0.4535850000000 1.0
C      1  0.5462030000000  0.5682190000000  0.4305490000000 1.0
C      1  0.4538120000000  0.5677960000000  0.5698750000000 1.0
C      1  0.4533550000000  0.4322140000000  0.4304200000000 1.0
C      1  0.4307060000000  0.5462120000000  0.5683730000000 1.0
C      1  0.5693050000000  0.5466210000000  0.4319170000000 1.0
C      1  0.5697260000000  0.4533640000000  0.5676420000000 1.0
C      1  0.5681470000000  0.4303320000000  0.5459830000000 1.0
C      1  0.4318370000000  0.4306360000000  0.4535830000000 1.0
C      1  0.4321480000000  0.5693780000000  0.5468490000000 1.0
C      1  0.4764560000000  0.5671640000000  0.5602880000000 1.0
C      1  0.5602140000000  0.4760410000000  0.5670840000000 1.0
C      1  0.5672800000000  0.5600690000000  0.4762310000000 1.0
C      1  0.4760590000000  0.4328410000000  0.4398630000000 1.0
C      1  0.5239250000000  0.4324620000000  0.5597170000000 1.0
C      1  0.5235600000000  0.5675330000000  0.4401320000000 1.0
C      1  0.5597910000000  0.5239460000000  0.4325350000000 1.0
C      1  0.4402140000000  0.5235390000000  0.5676130000000 1.0
C      1  0.4397810000000  0.4764740000000  0.4327680000000 1.0
C      1  0.5674170000000  0.4399160000000  0.5233410000000 1.0
C      1  0.4325690000000  0.4400790000000  0.4762840000000 1.0
C      1  0.4327340000000  0.5599360000000  0.5241430000000 1.0
C      1  0.5239410000000  0.5671590000000  0.5601370000000 1.0
C      1  0.4402090000000  0.4760540000000  0.5674650000000 1.0
C      1  0.4325830000000  0.5600840000000  0.4766590000000 1.0
C      1  0.5235440000000  0.4328360000000  0.4397120000000 1.0
C      1  0.4764400000000  0.4324670000000  0.5598680000000 1.0
C      1  0.4760750000000  0.5675390000000  0.4402830000000 1.0
C      1  0.4397860000000  0.5239590000000  0.4329160000000 1.0
C      1  0.5602190000000  0.5235260000000  0.5672320000000 1.0
C      1  0.5597860000000  0.4764610000000  0.4323870000000 1.0
C      1  0.4327200000000  0.4399310000000  0.5237690000000 1.0
C      1  0.5672670000000  0.4400640000000  0.4758570000000 1.0
C      1  0.5674310000000  0.5599210000000  0.5237160000000 1.0
C      1  0.5702480000000  0.4300710000000  0.4391750000000 1.0
C      1  0.4394020000000  0.5706730000000  0.4303020000000 1.0
C      1  0.4301070000000  0.4394050000000  0.5704820000000 1.0
C      1  0.5706480000000  0.5699150000000  0.5603770000000 1.0
C      1  0.4293680000000  0.5703060000000  0.4400600000000 1.0
C      1  0.4297350000000  0.4297090000000  0.5603880000000 1.0
C      1  0.4398310000000  0.4293390000000  0.5700820000000 1.0
C      1  0.5601520000000  0.4297640000000  0.4294790000000 1.0
C      1  0.5606140000000  0.5702230000000  0.5701380000000 1.0
C      1  0.4296730000000  0.5606100000000  0.4299630000000 1.0
C      1  0.5703410000000  0.5601560000000  0.5704130000000 1.0
C      1  0.5698790000000  0.4398290000000  0.4291410000000 1.0
C      1  0.4293520000000  0.4300850000000  0.4396220000000 1.0
C      1  0.5601680000000  0.5706610000000  0.4299180000000 1.0
C      1  0.5703270000000  0.4393900000000  0.5700370000000 1.0
C      1  0.4297520000000  0.5699290000000  0.5608250000000 1.0
C      1  0.5702650000000  0.5702910000000  0.4396120000000 1.0
C      1  0.5706320000000  0.4296940000000  0.5599400000000 1.0
C      1  0.5605980000000  0.4293270000000  0.5696980000000 1.0
C      1  0.4393860000000  0.4297770000000  0.4298620000000 1.0
C      1  0.4398480000000  0.5702360000000  0.5705210000000 1.0
C      1  0.5698930000000  0.5605950000000  0.4295180000000 1.0
C      1  0.4301210000000  0.5601710000000  0.5708590000000 1.0
C      1  0.4296590000000  0.4398440000000  0.4295860000000 1.0
C      1  0.4715090000000  0.4934840000000  0.4009430000000 1.0
C      1  0.4008490000000  0.4718560000000  0.4933990000000 1.0
C      1  0.4930710000000  0.4009630000000  0.4715370000000 1.0
C      1  0.4721400000000  0.5065220000000  0.5992360000000 1.0
C      1  0.5278610000000  0.5071340000000  0.4008070000000 1.0
C      1  0.5284890000000  0.4928600000000  0.5990140000000 1.0
C      1  0.4008990000000  0.5281650000000  0.5072310000000 1.0
C      1  0.5991070000000  0.5281860000000  0.4929450000000 1.0
C      1  0.5991440000000  0.4717930000000  0.5064250000000 1.0
C      1  0.4932730000000  0.5990390000000  0.5285060000000 1.0
C      1  0.5067500000000  0.5992130000000  0.4721120000000 1.0
C      1  0.5069060000000  0.4007860000000  0.5278450000000 1.0
C      1  0.5278600000000  0.4934780000000  0.4007640000000 1.0
C      1  0.5991010000000  0.4718350000000  0.4927690000000 1.0
C      1  0.5067270000000  0.4009620000000  0.4714940000000 1.0
C      1  0.5284910000000  0.5065160000000  0.5990570000000 1.0
C      1  0.4715110000000  0.5071400000000  0.4009860000000 1.0
C      1  0.4721390000000  0.4928660000000  0.5991930000000 1.0
C      1  0.5991500000000  0.5281430000000  0.5066010000000 1.0
C      1  0.4008560000000  0.5282070000000  0.4935750000000 1.0
C      1  0.4008930000000  0.4718140000000  0.5070550000000 1.0
C      1  0.5069290000000  0.5990370000000  0.5284630000000 1.0
C      1  0.4930940000000  0.5992140000000  0.4721550000000 1.0
C      1  0.4932500000000  0.4007870000000  0.5278880000000 1.0
C      1  0.4921760000000  0.3863340000000  0.5077700000000 1.0
C      1  0.5077370000000  0.4925170000000  0.3863090000000 1.0
C      1  0.3863340000000  0.5081360000000  0.4925500000000 1.0
C      1  0.4921510000000  0.6136680000000  0.4922800000000 1.0
C      1  0.5078750000000  0.6136160000000  0.5084290000000 1.0
C      1  0.5077970000000  0.3863830000000  0.4915220000000 1.0
C      1  0.5084610000000  0.5074810000000  0.6136400000000 1.0
C      1  0.4915410000000  0.5081920000000  0.3864090000000 1.0
C      1  0.4922610000000  0.4918100000000  0.6136430000000 1.0
C      1  0.3863820000000  0.4918880000000  0.5081720000000 1.0
C      1  0.6136160000000  0.4919130000000  0.4917770000000 1.0
C      1  0.6136680000000  0.5080630000000  0.5075010000000 1.0
C      1  0.5078490000000  0.3863320000000  0.5077200000000 1.0
C      1  0.4915390000000  0.4925190000000  0.3863600000000 1.0
C      1  0.6136180000000  0.5081120000000  0.4918280000000 1.0
C      1  0.5078240000000  0.6136660000000  0.4922300000000 1.0
C      1  0.4922030000000  0.6136170000000  0.5084780000000 1.0
C      1  0.4921250000000  0.3863840000000  0.4915710000000 1.0
C      1  0.4922630000000  0.5074830000000  0.6136910000000 1.0
C      1  0.5077390000000  0.5081900000000  0.3863570000000 1.0
C      1  0.5084590000000  0.4918080000000  0.6135910000000 1.0
C      1  0.6136660000000  0.4918640000000  0.5074500000000 1.0
C      1  0.3863320000000  0.4919370000000  0.4924990000000 1.0
C      1  0.3863840000000  0.5080870000000  0.5082230000000 1.0
C      1  0.5522760000000  0.4209950000000  0.4700650000000 1.0
C      1  0.4702330000000  0.5526290000000  0.4211660000000 1.0
C      1  0.4210710000000  0.4703230000000  0.5525380000000 1.0
C      1  0.5524820000000  0.5789940000000  0.5296020000000 1.0
C      1  0.4475360000000  0.5791890000000  0.4708910000000 1.0
C      1  0.4477050000000  0.4208220000000  0.5294420000000 1.0
C      1  0.4707230000000  0.4473770000000  0.5790220000000 1.0
C      1  0.5292650000000  0.4478640000000  0.4206520000000 1.0
C      1  0.5297790000000  0.5521300000000  0.5791610000000 1.0
C      1  0.4207450000000  0.5296940000000  0.4479640000000 1.0
C      1  0.5792620000000  0.5293500000000  0.5522200000000 1.0
C      1  0.5789220000000  0.4706330000000  0.4472780000000 1.0
C      1  0.4475180000000  0.4210060000000  0.4703980000000 1.0
C      1  0.5292770000000  0.5526230000000  0.4209780000000 1.0
C      1  0.5792550000000  0.4703060000000  0.5520360000000 1.0
C      1  0.4477240000000  0.5790050000000  0.5299350000000 1.0
C      1  0.5522950000000  0.5791780000000  0.4705580000000 1.0
C      1  0.5524640000000  0.4208110000000  0.5291090000000 1.0
C      1  0.5297670000000  0.4473710000000  0.5788340000000 1.0
C      1  0.4702210000000  0.4478700000000  0.4208390000000 1.0
C      1  0.4707350000000  0.5521360000000  0.5793480000000 1.0
C      1  0.5789290000000  0.5296770000000  0.4474620000000 1.0
C      1  0.4210780000000  0.5293670000000  0.5527220000000 1.0
C      1  0.4207380000000  0.4706500000000  0.4477800000000 1.0
C      1  0.4432250000000  0.5455380000000  0.5066240000000 1.0
C      1  0.5064390000000  0.4430570000000  0.5453540000000 1.0
C      1  0.5453710000000  0.5064740000000  0.4430750000000 1.0
C      1  0.4431740000000  0.4544750000000  0.4937370000000 1.0
C      1  0.5568150000000  0.4544230000000  0.5059790000000 1.0
C      1  0.5567860000000  0.5455650000000  0.4936600000000 1.0
C      1  0.5061630000000  0.5569420000000  0.4546060000000 1.0
C      1  0.4938500000000  0.5566590000000  0.5457480000000 1.0
C      1  0.4935470000000  0.4433420000000  0.4542920000000 1.0
C      1  0.5457310000000  0.4935170000000  0.5566360000000 1.0
C      1  0.4542680000000  0.4938810000000  0.4433250000000 1.0
C      1  0.4546300000000  0.5061290000000  0.5569650000000 1.0
C      1  0.5568260000000  0.5455250000000  0.5062630000000 1.0
C      1  0.4938370000000  0.4430580000000  0.5453940000000 1.0
C      1  0.4542690000000  0.5064830000000  0.4433640000000 1.0
C      1  0.5567750000000  0.4544620000000  0.4933760000000 1.0
C      1  0.4432140000000  0.4544350000000  0.5063400000000 1.0
C      1  0.4431850000000  0.5455770000000  0.4940210000000 1.0
C      1  0.4935610000000  0.5569430000000  0.4546460000000 1.0
C      1  0.5064530000000  0.5566580000000  0.5457080000000 1.0
C      1  0.5061500000000  0.4433410000000  0.4542520000000 1.0
C      1  0.4546290000000  0.4935260000000  0.5569260000000 1.0
C      1  0.5453700000000  0.4938710000000  0.4430350000000 1.0
C      1  0.5457320000000  0.5061190000000  0.5566750000000 1.0
C      1  0.5432320000000  0.3981920000000  0.4995450000000 1.0
C      1  0.4996820000000  0.5435610000000  0.3983320000000 1.0
C      1  0.3983340000000  0.4998760000000  0.5435670000000 1.0
C      1  0.4567680000000  0.6018080000000  0.5004550000000 1.0
C      1  0.5003180000000  0.4564390000000  0.6016680000000 1.0
C      1  0.4996720000000  0.4570740000000  0.3980620000000 1.0
C      1  0.3980590000000  0.5001460000000  0.4570800000000 1.0
C      1  0.6019410000000  0.4998540000000  0.5429200000000 1.0
C      1  0.5003280000000  0.5429260000000  0.6019380000000 1.0
C      1  0.6016660000000  0.5001240000000  0.4564330000000 1.0
C      1  0.5432550000000  0.6017990000000  0.5001800000000 1.0
C      1  0.4567450000000  0.3982010000000  0.4998200000000 1.0
END
