TITL C-3292282-5471-57 -68.6580905457409 1000000 -3735.70395646067 0 0 540 (C1) n - 1
REM
REM in /scratch/bkarasulu/Only-C240/Try5-OnlyC540
REM
REM
REM
REM
REM
REM ./C.cell (44946988efc617adc4c7d3233e6f571a)
REM
REM compiler GCC version 9.2.1 20190827 (Red Hat 9.2.1-1)
REM options -cpp -mtune=generic -march=x86-64 -g -O0 -fpre-include=/usr/include/finclude/math-vector-fortran.h
REM seed -1056730662 1155401823 -1446306070 -1921502690 -1609429315 -596699326 1448100422 -1360180660 1215878074 -981638240 -244382575 1427689413 -1264400224 78375124 480416802 -1508251941 -665683845 -1116287660 -289057423 -67823238 -891881200 1174375431 1060860443 1199984978 2127891611 -92731353 -1565074919 -1946767018 37150739 -1499872675 1977721625 -1037834660 1986772416
REM
CELL 1.54180  100.00000  100.00000  100.00000   90.00000   90.00000   90.00000
LATT -1
SFAC C  
C      1  0.4101340000000  0.5137200000000  0.4454120000000 1.0
C      1  0.4456540000000  0.4103690000000  0.5135280000000 1.0
C      1  0.5137890000000  0.4454290000000  0.4103420000000 1.0
C      1  0.5894860000000  0.4860930000000  0.4461510000000 1.0
C      1  0.5890750000000  0.5138950000000  0.5537310000000 1.0
C      1  0.4110030000000  0.4864290000000  0.5542290000000 1.0
C      1  0.5543790000000  0.5899440000000  0.5134820000000 1.0
C      1  0.5546020000000  0.4096020000000  0.4862800000000 1.0
C      1  0.4455120000000  0.5900050000000  0.4861450000000 1.0
C      1  0.4864420000000  0.5544040000000  0.4106990000000 1.0
C      1  0.4866320000000  0.4449970000000  0.5896240000000 1.0
C      1  0.5133780000000  0.5550200000000  0.5896750000000 1.0
C      1  0.5137810000000  0.4100250000000  0.4454810000000 1.0
C      1  0.4106010000000  0.4456140000000  0.5135260000000 1.0
C      1  0.4456810000000  0.5135770000000  0.4106220000000 1.0
C      1  0.4862950000000  0.5901280000000  0.4453660000000 1.0
C      1  0.5135420000000  0.5899010000000  0.5543160000000 1.0
C      1  0.4864470000000  0.4100260000000  0.5543460000000 1.0
C      1  0.5896680000000  0.5550090000000  0.5133290000000 1.0
C      1  0.4103840000000  0.5545630000000  0.4861620000000 1.0
C      1  0.5895760000000  0.4449660000000  0.4865970000000 1.0
C      1  0.5545070000000  0.4862530000000  0.4105810000000 1.0
C      1  0.4461980000000  0.4861360000000  0.5895110000000 1.0
C      1  0.5537640000000  0.5139020000000  0.5891050000000 1.0
C      1  0.5319830000000  0.4785530000000  0.6129510000000 1.0
C      1  0.6144170000000  0.5324100000000  0.4781340000000 1.0
C      1  0.4782400000000  0.6146650000000  0.5321740000000 1.0
C      1  0.4682000000000  0.5214140000000  0.6132770000000 1.0
C      1  0.4677880000000  0.4782960000000  0.3858930000000 1.0
C      1  0.5321780000000  0.5216330000000  0.3869450000000 1.0
C      1  0.3856960000000  0.4677380000000  0.4783400000000 1.0
C      1  0.3869410000000  0.5321670000000  0.5216590000000 1.0
C      1  0.6141090000000  0.4674840000000  0.5219820000000 1.0
C      1  0.5215930000000  0.3850560000000  0.5321780000000 1.0
C      1  0.5215610000000  0.6139100000000  0.4678330000000 1.0
C      1  0.4783500000000  0.3863830000000  0.4678160000000 1.0
C      1  0.4781860000000  0.5324440000000  0.6144720000000 1.0
C      1  0.5322420000000  0.6147690000000  0.4782210000000 1.0
C      1  0.6128690000000  0.4785200000000  0.5319550000000 1.0
C      1  0.5220090000000  0.4675180000000  0.6142010000000 1.0
C      1  0.4784630000000  0.4679030000000  0.3867270000000 1.0
C      1  0.5218200000000  0.5323380000000  0.3860600000000 1.0
C      1  0.4676440000000  0.3855330000000  0.4781790000000 1.0
C      1  0.5319860000000  0.3858840000000  0.5215000000000 1.0
C      1  0.4678740000000  0.6137840000000  0.5214720000000 1.0
C      1  0.3861570000000  0.5217800000000  0.5323440000000 1.0
C      1  0.6132170000000  0.5213790000000  0.4681510000000 1.0
C      1  0.3865300000000  0.4784370000000  0.4679700000000 1.0
C      1  0.4713180000000  0.6167250000000  0.4955880000000 1.0
C      1  0.4960910000000  0.4707090000000  0.6164830000000 1.0
C      1  0.6161090000000  0.4955030000000  0.4720950000000 1.0
C      1  0.5285450000000  0.3830820000000  0.4955930000000 1.0
C      1  0.5286050000000  0.6168670000000  0.5041550000000 1.0
C      1  0.4712330000000  0.3832940000000  0.5041070000000 1.0
C      1  0.5041150000000  0.5292480000000  0.6165490000000 1.0
C      1  0.5043440000000  0.4713980000000  0.3838030000000 1.0
C      1  0.4959090000000  0.5286680000000  0.3838200000000 1.0
C      1  0.3836410000000  0.5043260000000  0.4714620000000 1.0
C      1  0.3839010000000  0.4958690000000  0.5286970000000 1.0
C      1  0.6159030000000  0.5043800000000  0.5280370000000 1.0
C      1  0.6164060000000  0.4706890000000  0.4960700000000 1.0
C      1  0.4721220000000  0.4955320000000  0.6161700000000 1.0
C      1  0.4956630000000  0.6167940000000  0.4712570000000 1.0
C      1  0.3838170000000  0.5286890000000  0.4957930000000 1.0
C      1  0.6165020000000  0.5292040000000  0.5040600000000 1.0
C      1  0.3836780000000  0.4713990000000  0.5042690000000 1.0
C      1  0.5280820000000  0.5044180000000  0.6159620000000 1.0
C      1  0.4714770000000  0.5042150000000  0.3837550000000 1.0
C      1  0.5286840000000  0.4957670000000  0.3839190000000 1.0
C      1  0.5042220000000  0.3833220000000  0.4712600000000 1.0
C      1  0.4956500000000  0.3830830000000  0.5285440000000 1.0
C      1  0.5041740000000  0.6168270000000  0.5285660000000 1.0
C      1  0.4344900000000  0.5223940000000  0.4101060000000 1.0
C      1  0.4101660000000  0.4344380000000  0.5223650000000 1.0
C      1  0.5225450000000  0.4096630000000  0.4342710000000 1.0
C      1  0.5657300000000  0.4775080000000  0.4102160000000 1.0
C      1  0.5650450000000  0.5225800000000  0.5894960000000 1.0
C      1  0.4349290000000  0.4774430000000  0.5899260000000 1.0
C      1  0.5900480000000  0.5661310000000  0.5222320000000 1.0
C      1  0.5900380000000  0.4338390000000  0.4777010000000 1.0
C      1  0.4099460000000  0.5657660000000  0.4773910000000 1.0
C      1  0.4775270000000  0.5904170000000  0.4341590000000 1.0
C      1  0.4776070000000  0.4096070000000  0.5655230000000 1.0
C      1  0.5223780000000  0.5903660000000  0.5654950000000 1.0
C      1  0.5225610000000  0.4342270000000  0.4099280000000 1.0
C      1  0.4344680000000  0.4099660000000  0.5223560000000 1.0
C      1  0.4097680000000  0.5224770000000  0.4342000000000 1.0
C      1  0.4776120000000  0.5655860000000  0.4101610000000 1.0
C      1  0.5222830000000  0.5661400000000  0.5900330000000 1.0
C      1  0.4777290000000  0.4338750000000  0.5900280000000 1.0
C      1  0.5655550000000  0.5903960000000  0.5223210000000 1.0
C      1  0.4343010000000  0.5903350000000  0.4773800000000 1.0
C      1  0.5658020000000  0.4092530000000  0.4775050000000 1.0
C      1  0.5899590000000  0.4774020000000  0.4348830000000 1.0
C      1  0.4105690000000  0.4776260000000  0.5654330000000 1.0
C      1  0.5894870000000  0.5225750000000  0.5650100000000 1.0
C      1  0.5889460000000  0.5481740000000  0.4899660000000 1.0
C      1  0.4902080000000  0.5891390000000  0.5474380000000 1.0
C      1  0.5463110000000  0.4907340000000  0.5875950000000 1.0
C      1  0.4113030000000  0.4524810000000  0.4901820000000 1.0
C      1  0.4119690000000  0.5472250000000  0.5093710000000 1.0
C      1  0.5886940000000  0.4518110000000  0.5099520000000 1.0
C      1  0.5097930000000  0.4106490000000  0.5474800000000 1.0
C      1  0.5095140000000  0.5887660000000  0.4527200000000 1.0
C      1  0.4905680000000  0.4115070000000  0.4528320000000 1.0
C      1  0.4536260000000  0.5093110000000  0.5880320000000 1.0
C      1  0.4525900000000  0.4902430000000  0.4114520000000 1.0
C      1  0.5471200000000  0.5094560000000  0.4121050000000 1.0
C      1  0.5475130000000  0.5892240000000  0.4901420000000 1.0
C      1  0.5875330000000  0.4907270000000  0.5462830000000 1.0
C      1  0.4900120000000  0.5481940000000  0.5889830000000 1.0
C      1  0.4525390000000  0.4111380000000  0.4901950000000 1.0
C      1  0.5472650000000  0.4109460000000  0.5095040000000 1.0
C      1  0.4528620000000  0.5886110000000  0.5093660000000 1.0
C      1  0.4118330000000  0.5097590000000  0.5473100000000 1.0
C      1  0.5879790000000  0.5092690000000  0.4535810000000 1.0
C      1  0.4115920000000  0.4905090000000  0.4527800000000 1.0
C      1  0.5099900000000  0.4518230000000  0.5887860000000 1.0
C      1  0.4905710000000  0.4527680000000  0.4118110000000 1.0
C      1  0.5097740000000  0.5475170000000  0.4115890000000 1.0
C      1  0.5517690000000  0.5953610000000  0.5408860000000 1.0
C      1  0.5408190000000  0.5522440000000  0.5949420000000 1.0
C      1  0.5948540000000  0.5412840000000  0.5515290000000 1.0
C      1  0.4482040000000  0.4048170000000  0.5409050000000 1.0
C      1  0.4479260000000  0.5955360000000  0.4586860000000 1.0
C      1  0.5521170000000  0.4042610000000  0.4587790000000 1.0
C      1  0.4592260000000  0.4477640000000  0.5950780000000 1.0
C      1  0.4590710000000  0.5518050000000  0.4051420000000 1.0
C      1  0.5412540000000  0.4479070000000  0.4048560000000 1.0
C      1  0.4053620000000  0.4590740000000  0.5517390000000 1.0
C      1  0.4046560000000  0.5411970000000  0.4478550000000 1.0
C      1  0.5950980000000  0.4586670000000  0.4484230000000 1.0
C      1  0.5949420000000  0.5522310000000  0.5407710000000 1.0
C      1  0.5515740000000  0.5412960000000  0.5948610000000 1.0
C      1  0.5409390000000  0.5953530000000  0.5517150000000 1.0
C      1  0.4052510000000  0.4482360000000  0.5409310000000 1.0
C      1  0.5950530000000  0.4477180000000  0.4591900000000 1.0
C      1  0.4047160000000  0.5521010000000  0.4587330000000 1.0
C      1  0.4484660000000  0.4587110000000  0.5951180000000 1.0
C      1  0.5521300000000  0.4588100000000  0.4049260000000 1.0
C      1  0.4482490000000  0.5409660000000  0.4051270000000 1.0
C      1  0.4590260000000  0.4047290000000  0.5517340000000 1.0
C      1  0.5412230000000  0.4043760000000  0.4478910000000 1.0
C      1  0.4588140000000  0.5955710000000  0.4477990000000 1.0
C      1  0.4584860000000  0.5178900000000  0.4073170000000 1.0
C      1  0.4072930000000  0.4584200000000  0.5178310000000 1.0
C      1  0.5182000000000  0.4065490000000  0.4581810000000 1.0
C      1  0.5418190000000  0.4818200000000  0.4070960000000 1.0
C      1  0.5410970000000  0.5183620000000  0.5926740000000 1.0
C      1  0.4589040000000  0.4816650000000  0.5929380000000 1.0
C      1  0.5929480000000  0.5421980000000  0.5176060000000 1.0
C      1  0.5928930000000  0.4577750000000  0.4823400000000 1.0
C      1  0.4069590000000  0.5418440000000  0.4817600000000 1.0
C      1  0.4818520000000  0.5935530000000  0.4580690000000 1.0
C      1  0.4821280000000  0.4067470000000  0.5415330000000 1.0
C      1  0.5178490000000  0.5932040000000  0.5415030000000 1.0
C      1  0.5182130000000  0.4581530000000  0.4069740000000 1.0
C      1  0.4584370000000  0.4069500000000  0.5178280000000 1.0
C      1  0.4067820000000  0.5181690000000  0.4581330000000 1.0
C      1  0.4821540000000  0.5415950000000  0.4073750000000 1.0
C      1  0.5176520000000  0.5422130000000  0.5929750000000 1.0
C      1  0.4823780000000  0.4578050000000  0.5929580000000 1.0
C      1  0.5415640000000  0.5932360000000  0.5177900000000 1.0
C      1  0.4582090000000  0.5934680000000  0.4817160000000 1.0
C      1  0.5418680000000  0.4062940000000  0.4818310000000 1.0
C      1  0.5928880000000  0.4816240000000  0.4588630000000 1.0
C      1  0.4075290000000  0.4821260000000  0.5414680000000 1.0
C      1  0.5926340000000  0.5183490000000  0.5410590000000 1.0
C      1  0.4030450000000  0.5410920000000  0.4686250000000 1.0
C      1  0.4689400000000  0.4030540000000  0.5407230000000 1.0
C      1  0.5411070000000  0.4686770000000  0.4032010000000 1.0
C      1  0.5967130000000  0.4586500000000  0.4691900000000 1.0
C      1  0.5966770000000  0.5413040000000  0.5307800000000 1.0
C      1  0.4035590000000  0.4592350000000  0.5310050000000 1.0
C      1  0.5310200000000  0.5969610000000  0.5407000000000 1.0
C      1  0.5313450000000  0.4026590000000  0.4589040000000 1.0
C      1  0.4686810000000  0.5973470000000  0.4588100000000 1.0
C      1  0.4592750000000  0.5310530000000  0.4035310000000 1.0
C      1  0.4595650000000  0.4685090000000  0.5967850000000 1.0
C      1  0.5404840000000  0.5314960000000  0.5966020000000 1.0
C      1  0.5410950000000  0.4025560000000  0.4686450000000 1.0
C      1  0.4036560000000  0.4689870000000  0.5407270000000 1.0
C      1  0.4690030000000  0.5407950000000  0.4035510000000 1.0
C      1  0.4589350000000  0.5973140000000  0.4685590000000 1.0
C      1  0.5407550000000  0.5969730000000  0.5309660000000 1.0
C      1  0.4592080000000  0.4031360000000  0.5309840000000 1.0
C      1  0.5965710000000  0.5314800000000  0.5404400000000 1.0
C      1  0.4029780000000  0.5313370000000  0.4588870000000 1.0
C      1  0.5967310000000  0.4684670000000  0.4595260000000 1.0
C      1  0.5313720000000  0.4589180000000  0.4031470000000 1.0
C      1  0.4692280000000  0.4586880000000  0.5967730000000 1.0
C      1  0.5308260000000  0.5413220000000  0.5967020000000 1.0
C      1  0.5326720000000  0.5507950000000  0.4007120000000 1.0
C      1  0.4009000000000  0.5326140000000  0.5507280000000 1.0
C      1  0.5484950000000  0.4022520000000  0.5335260000000 1.0
C      1  0.4665100000000  0.4514840000000  0.4032350000000 1.0
C      1  0.4670180000000  0.5508230000000  0.5999440000000 1.0
C      1  0.5330770000000  0.4491820000000  0.5995390000000 1.0
C      1  0.5961490000000  0.4668100000000  0.5483420000000 1.0
C      1  0.5966870000000  0.5331600000000  0.4516190000000 1.0
C      1  0.4029720000000  0.4664710000000  0.4514920000000 1.0
C      1  0.4514870000000  0.5972320000000  0.5334060000000 1.0
C      1  0.4492210000000  0.4002140000000  0.4673180000000 1.0
C      1  0.5507770000000  0.6002610000000  0.4673140000000 1.0
C      1  0.5485180000000  0.5335200000000  0.4035750000000 1.0
C      1  0.5325610000000  0.3994810000000  0.5507390000000 1.0
C      1  0.4035870000000  0.5485370000000  0.5334930000000 1.0
C      1  0.4492850000000  0.4674080000000  0.4004520000000 1.0
C      1  0.5483720000000  0.4668280000000  0.5962430000000 1.0
C      1  0.4516720000000  0.5332010000000  0.5967450000000 1.0
C      1  0.4673400000000  0.6001020000000  0.5506730000000 1.0
C      1  0.5335460000000  0.5974210000000  0.4514170000000 1.0
C      1  0.4664870000000  0.4030130000000  0.4514540000000 1.0
C      1  0.5994280000000  0.4491590000000  0.5330440000000 1.0
C      1  0.4001970000000  0.4492270000000  0.4673850000000 1.0
C      1  0.5998900000000  0.5507880000000  0.4669630000000 1.0
C      1  0.4646250000000  0.5039860000000  0.5960240000000 1.0
C      1  0.5965570000000  0.4630420000000  0.5047560000000 1.0
C      1  0.5041850000000  0.5967180000000  0.4637050000000 1.0
C      1  0.5353980000000  0.4960330000000  0.5957160000000 1.0
C      1  0.5361720000000  0.5041670000000  0.4040770000000 1.0
C      1  0.4638270000000  0.4954940000000  0.4035930000000 1.0
C      1  0.4039770000000  0.5362290000000  0.5041220000000 1.0
C      1  0.4034690000000  0.4637310000000  0.4954510000000 1.0
C      1  0.5967460000000  0.5369240000000  0.4952200000000 1.0
C      1  0.4958420000000  0.4034860000000  0.4637940000000 1.0
C      1  0.4954500000000  0.5969870000000  0.5361830000000 1.0
C      1  0.5045040000000  0.4028480000000  0.5362170000000 1.0
C      1  0.5047930000000  0.4630620000000  0.5966430000000 1.0
C      1  0.4638250000000  0.5966050000000  0.5040590000000 1.0
C      1  0.5959660000000  0.5039480000000  0.4645820000000 1.0
C      1  0.4952660000000  0.5369500000000  0.5967910000000 1.0
C      1  0.5045630000000  0.5362800000000  0.4037010000000 1.0
C      1  0.4958740000000  0.4637810000000  0.4038800000000 1.0
C      1  0.5362190000000  0.4030880000000  0.5041590000000 1.0
C      1  0.4637360000000  0.4032010000000  0.4954220000000 1.0
C      1  0.5362510000000  0.5970530000000  0.4953950000000 1.0
C      1  0.4036910000000  0.4958340000000  0.4638060000000 1.0
C      1  0.5956520000000  0.4960170000000  0.5353640000000 1.0
C      1  0.4038420000000  0.5045320000000  0.5361560000000 1.0
C      1  0.4192490000000  0.5708280000000  0.4989680000000 1.0
C      1  0.4992870000000  0.4183720000000  0.5708350000000 1.0
C      1  0.5706460000000  0.4990630000000  0.4196520000000 1.0
C      1  0.5810530000000  0.4284890000000  0.4993160000000 1.0
C      1  0.5811720000000  0.5714790000000  0.5005740000000 1.0
C      1  0.4190430000000  0.4291460000000  0.5007230000000 1.0
C      1  0.5007230000000  0.5815490000000  0.5708280000000 1.0
C      1  0.5009600000000  0.4189890000000  0.4292840000000 1.0
C      1  0.4991560000000  0.5811980000000  0.4291780000000 1.0
C      1  0.4292260000000  0.5007820000000  0.4190770000000 1.0
C      1  0.4299730000000  0.4990310000000  0.5806780000000 1.0
C      1  0.5698790000000  0.5010530000000  0.5800320000000 1.0
C      1  0.5708830000000  0.4183150000000  0.4991750000000 1.0
C      1  0.4197290000000  0.4991920000000  0.5705700000000 1.0
C      1  0.4992130000000  0.5708950000000  0.4191340000000 1.0
C      1  0.4293320000000  0.5810480000000  0.4989830000000 1.0
C      1  0.5708840000000  0.5815830000000  0.5006610000000 1.0
C      1  0.4292330000000  0.4189370000000  0.5007380000000 1.0
C      1  0.5800220000000  0.5010530000000  0.5698640000000 1.0
C      1  0.4189850000000  0.5008550000000  0.4291820000000 1.0
C      1  0.5806820000000  0.4989800000000  0.4299200000000 1.0
C      1  0.5009520000000  0.4291710000000  0.4191620000000 1.0
C      1  0.4993550000000  0.4285180000000  0.5810830000000 1.0
C      1  0.5006250000000  0.5714730000000  0.5811450000000 1.0
C      1  0.4239440000000  0.5139320000000  0.4140000000000 1.0
C      1  0.4140880000000  0.4238890000000  0.5139100000000 1.0
C      1  0.5140390000000  0.4138710000000  0.4238760000000 1.0
C      1  0.5761030000000  0.4860130000000  0.4144840000000 1.0
C      1  0.5753830000000  0.5140350000000  0.5852570000000 1.0
C      1  0.4245500000000  0.4859930000000  0.5857720000000 1.0
C      1  0.5860750000000  0.5767010000000  0.5138150000000 1.0
C      1  0.5860940000000  0.4232650000000  0.4861140000000 1.0
C      1  0.4140800000000  0.5761930000000  0.4858930000000 1.0
C      1  0.4860390000000  0.5861800000000  0.4237680000000 1.0
C      1  0.4860760000000  0.4134830000000  0.5760770000000 1.0
C      1  0.5139170000000  0.5864780000000  0.5760500000000 1.0
C      1  0.5140440000000  0.4237950000000  0.4140210000000 1.0
C      1  0.4239520000000  0.4139890000000  0.5139090000000 1.0
C      1  0.4139640000000  0.5139620000000  0.4237920000000 1.0
C      1  0.4860650000000  0.5761440000000  0.4140340000000 1.0
C      1  0.5138670000000  0.5767040000000  0.5860390000000 1.0
C      1  0.4861300000000  0.4233090000000  0.5860140000000 1.0
C      1  0.5761100000000  0.5865000000000  0.5138610000000 1.0
C      1  0.4239070000000  0.5861440000000  0.4858940000000 1.0
C      1  0.5762340000000  0.4133530000000  0.4860340000000 1.0
C      1  0.5858780000000  0.4859590000000  0.4244890000000 1.0
C      1  0.4146250000000  0.4860760000000  0.5759240000000 1.0
C      1  0.5852620000000  0.5140340000000  0.5753550000000 1.0
C      1  0.5399390000000  0.5312760000000  0.4246830000000 1.0
C      1  0.4247100000000  0.5400490000000  0.5310810000000 1.0
C      1  0.5355370000000  0.4185350000000  0.5434240000000 1.0
C      1  0.4566930000000  0.4645500000000  0.4194860000000 1.0
C      1  0.4603890000000  0.5314620000000  0.5756350000000 1.0
C      1  0.5394700000000  0.4685970000000  0.5752090000000 1.0
C      1  0.5802450000000  0.4564150000000  0.5353580000000 1.0
C      1  0.5807060000000  0.5435930000000  0.4644800000000 1.0
C      1  0.4192450000000  0.4565850000000  0.4644680000000 1.0
C      1  0.4645510000000  0.5810380000000  0.5433070000000 1.0
C      1  0.4687740000000  0.4241370000000  0.4599850000000 1.0
C      1  0.5313800000000  0.5762510000000  0.4598610000000 1.0
C      1  0.5354030000000  0.5433680000000  0.4197610000000 1.0
C      1  0.5401730000000  0.4234670000000  0.5313760000000 1.0
C      1  0.4198870000000  0.5354410000000  0.5431820000000 1.0
C      1  0.4687620000000  0.4599330000000  0.4243870000000 1.0
C      1  0.5354010000000  0.4564090000000  0.5803460000000 1.0
C      1  0.4645200000000  0.5436360000000  0.5807580000000 1.0
C      1  0.4600020000000  0.5760920000000  0.5312310000000 1.0
C      1  0.5434390000000  0.5811970000000  0.4644510000000 1.0
C      1  0.4566790000000  0.4192450000000  0.4645410000000 1.0
C      1  0.5751250000000  0.4686090000000  0.5394290000000 1.0
C      1  0.4241630000000  0.4686570000000  0.4598730000000 1.0
C      1  0.5755850000000  0.5314180000000  0.4603500000000 1.0
C      1  0.4363320000000  0.4635640000000  0.5924430000000 1.0
C      1  0.5924280000000  0.4354920000000  0.4638330000000 1.0
C      1  0.4636320000000  0.5928470000000  0.4356640000000 1.0
C      1  0.5636870000000  0.5364540000000  0.5920720000000 1.0
C      1  0.5642590000000  0.4636230000000  0.4076940000000 1.0
C      1  0.4360370000000  0.5362600000000  0.4076950000000 1.0
C      1  0.4074390000000  0.5642580000000  0.4635090000000 1.0
C      1  0.4078070000000  0.4360190000000  0.5362350000000 1.0
C      1  0.5923640000000  0.5644560000000  0.5361100000000 1.0
C      1  0.5364300000000  0.4071560000000  0.4357540000000 1.0
C      1  0.5362410000000  0.5927680000000  0.5639260000000 1.0
C      1  0.4637330000000  0.4072820000000  0.5639490000000 1.0
C      1  0.4638660000000  0.4355450000000  0.5924280000000 1.0
C      1  0.4357860000000  0.5927790000000  0.4634850000000 1.0
C      1  0.5924570000000  0.4635170000000  0.4362790000000 1.0
C      1  0.5361600000000  0.5644670000000  0.5923460000000 1.0
C      1  0.4637520000000  0.5640250000000  0.4077260000000 1.0
C      1  0.5364590000000  0.4357420000000  0.4075070000000 1.0
C      1  0.5642750000000  0.4068820000000  0.4636010000000 1.0
C      1  0.4360140000000  0.4075050000000  0.5362110000000 1.0
C      1  0.5639810000000  0.5927840000000  0.5361860000000 1.0
C      1  0.4073170000000  0.5363690000000  0.4357090000000 1.0
C      1  0.5920730000000  0.5364470000000  0.5636460000000 1.0
C      1  0.4080800000000  0.4637700000000  0.5639230000000 1.0
C      1  0.4621410000000  0.6246260000000  0.4890100000000 1.0
C      1  0.4893170000000  0.4616480000000  0.6243170000000 1.0
C      1  0.6240650000000  0.4890070000000  0.4628910000000 1.0
C      1  0.5376600000000  0.3751370000000  0.4889830000000 1.0
C      1  0.5377440000000  0.6246720000000  0.5108780000000 1.0
C      1  0.4620380000000  0.3755240000000  0.5107950000000 1.0
C      1  0.5109490000000  0.5382830000000  0.6243630000000 1.0
C      1  0.5109360000000  0.4622870000000  0.3758370000000 1.0
C      1  0.4892190000000  0.5377960000000  0.3759720000000 1.0
C      1  0.3756610000000  0.5109030000000  0.4623520000000 1.0
C      1  0.3761160000000  0.4891880000000  0.5378860000000 1.0
C      1  0.6238100000000  0.5108440000000  0.5373060000000 1.0
C      1  0.6242540000000  0.4616310000000  0.4893080000000 1.0
C      1  0.4629070000000  0.4890370000000  0.6241130000000 1.0
C      1  0.4890690000000  0.6247050000000  0.4621000000000 1.0
C      1  0.3758480000000  0.5378380000000  0.4892590000000 1.0
C      1  0.6243310000000  0.5382300000000  0.5108890000000 1.0
C      1  0.3758640000000  0.4622940000000  0.5110310000000 1.0
C      1  0.5373580000000  0.5108870000000  0.6238560000000 1.0
C      1  0.4623600000000  0.5109200000000  0.3759070000000 1.0
C      1  0.5378480000000  0.4892250000000  0.3759730000000 1.0
C      1  0.5107580000000  0.3754080000000  0.4620660000000 1.0
C      1  0.4888860000000  0.3752950000000  0.5376690000000 1.0
C      1  0.5108760000000  0.6246340000000  0.5377190000000 1.0
C      1  0.5121310000000  0.3938750000000  0.4782510000000 1.0
C      1  0.4785530000000  0.5119650000000  0.3944540000000 1.0
C      1  0.3944180000000  0.4784860000000  0.5119470000000 1.0
C      1  0.4878310000000  0.6061560000000  0.4782020000000 1.0
C      1  0.4879760000000  0.3938390000000  0.5214720000000 1.0
C      1  0.5119290000000  0.6061400000000  0.5214720000000 1.0
C      1  0.5217100000000  0.4878670000000  0.3944890000000 1.0
C      1  0.5210580000000  0.5124520000000  0.6055000000000 1.0
C      1  0.4790540000000  0.4875310000000  0.6056170000000 1.0
C      1  0.6056910000000  0.5221190000000  0.5116000000000 1.0
C      1  0.6056790000000  0.4778080000000  0.4884410000000 1.0
C      1  0.3943770000000  0.5217240000000  0.4878690000000 1.0
C      1  0.3943070000000  0.5121820000000  0.4783460000000 1.0
C      1  0.5121890000000  0.4783250000000  0.3944440000000 1.0
C      1  0.4783910000000  0.3939220000000  0.5118800000000 1.0
C      1  0.6055520000000  0.4875030000000  0.4790210000000 1.0
C      1  0.3945060000000  0.4880850000000  0.5215220000000 1.0
C      1  0.6054460000000  0.5124230000000  0.5210150000000 1.0
C      1  0.4881340000000  0.5215610000000  0.3944790000000 1.0
C      1  0.5116460000000  0.5221510000000  0.6057410000000 1.0
C      1  0.4884720000000  0.4778330000000  0.6057500000000 1.0
C      1  0.5215200000000  0.6061560000000  0.5118850000000 1.0
C      1  0.4782980000000  0.6061280000000  0.4877320000000 1.0
C      1  0.5216640000000  0.3937800000000  0.4877830000000 1.0
C      1  0.5088550000000  0.4669550000000  0.6099670000000 1.0
C      1  0.6093090000000  0.5081050000000  0.4686020000000 1.0
C      1  0.4678550000000  0.6099650000000  0.5081990000000 1.0
C      1  0.4913050000000  0.5330230000000  0.6101360000000 1.0
C      1  0.4917390000000  0.4678670000000  0.3905410000000 1.0
C      1  0.5086610000000  0.5324210000000  0.3903970000000 1.0
C      1  0.3903630000000  0.4917090000000  0.4679400000000 1.0
C      1  0.3905080000000  0.5086260000000  0.5323880000000 1.0
C      1  0.6090170000000  0.4918080000000  0.5314710000000 1.0
C      1  0.5320600000000  0.3897510000000  0.5082400000000 1.0
C      1  0.5323420000000  0.6103650000000  0.4913580000000 1.0
C      1  0.4675490000000  0.3898760000000  0.4913350000000 1.0
C      1  0.4686420000000  0.5081400000000  0.6093700000000 1.0
C      1  0.5082930000000  0.6100730000000  0.4677790000000 1.0
C      1  0.6098780000000  0.4669320000000  0.5088260000000 1.0
C      1  0.5315060000000  0.4918370000000  0.6090870000000 1.0
C      1  0.4677190000000  0.4914390000000  0.3902850000000 1.0
C      1  0.5321620000000  0.5083470000000  0.3907290000000 1.0
C      1  0.4916410000000  0.3901430000000  0.4678090000000 1.0
C      1  0.5084770000000  0.3895210000000  0.5322920000000 1.0
C      1  0.4913880000000  0.6102950000000  0.5322870000000 1.0
C      1  0.3906540000000  0.5321870000000  0.5083540000000 1.0
C      1  0.6100850000000  0.5329880000000  0.4912550000000 1.0
C      1  0.3901410000000  0.4676280000000  0.4914610000000 1.0
C      1  0.4050230000000  0.5093060000000  0.4686370000000 1.0
C      1  0.4687510000000  0.4047500000000  0.5088090000000 1.0
C      1  0.5093360000000  0.4686410000000  0.4051920000000 1.0
C      1  0.5947200000000  0.4904430000000  0.4693990000000 1.0
C      1  0.5945120000000  0.5095270000000  0.5305350000000 1.0
C      1  0.4053550000000  0.4911400000000  0.5311450000000 1.0
C      1  0.5312400000000  0.5954100000000  0.5087740000000 1.0
C      1  0.5313750000000  0.4044830000000  0.4906970000000 1.0
C      1  0.4686840000000  0.5953220000000  0.4905920000000 1.0
C      1  0.4911770000000  0.5312680000000  0.4052580000000 1.0
C      1  0.4914470000000  0.4680910000000  0.5950410000000 1.0
C      1  0.5085980000000  0.5319210000000  0.5950810000000 1.0
C      1  0.5093160000000  0.4047070000000  0.4686530000000 1.0
C      1  0.4051440000000  0.4687490000000  0.5088190000000 1.0
C      1  0.4688250000000  0.5088800000000  0.4052000000000 1.0
C      1  0.4907200000000  0.5953890000000  0.4685540000000 1.0
C      1  0.5088350000000  0.5953750000000  0.5311770000000 1.0
C      1  0.4911340000000  0.4045570000000  0.5312060000000 1.0
C      1  0.5950390000000  0.5319000000000  0.5085550000000 1.0
C      1  0.4051820000000  0.5313660000000  0.4906500000000 1.0
C      1  0.5949660000000  0.4680650000000  0.4914060000000 1.0
C      1  0.5313280000000  0.4906900000000  0.4053020000000 1.0
C      1  0.4694420000000  0.4904800000000  0.5947790000000 1.0
C      1  0.5305730000000  0.5095430000000  0.5945660000000 1.0
C      1  0.6085790000000  0.4688400000000  0.5418710000000 1.0
C      1  0.5422260000000  0.6114650000000  0.4683300000000 1.0
C      1  0.4680710000000  0.5421510000000  0.6110790000000 1.0
C      1  0.3896010000000  0.5316500000000  0.5422970000000 1.0
C      1  0.3906920000000  0.4685310000000  0.4582420000000 1.0
C      1  0.6090510000000  0.5310790000000  0.4581990000000 1.0
C      1  0.4576990000000  0.3889500000000  0.4682890000000 1.0
C      1  0.4581670000000  0.6095540000000  0.5313670000000 1.0
C      1  0.5417090000000  0.3899970000000  0.5314300000000 1.0
C      1  0.5321010000000  0.4578240000000  0.6107020000000 1.0
C      1  0.5317050000000  0.5422900000000  0.3894670000000 1.0
C      1  0.4685510000000  0.4582040000000  0.3909350000000 1.0
C      1  0.4683410000000  0.6113190000000  0.5421350000000 1.0
C      1  0.6110230000000  0.5421150000000  0.4680180000000 1.0
C      1  0.5418990000000  0.4688690000000  0.6086700000000 1.0
C      1  0.5314970000000  0.3882950000000  0.5421690000000 1.0
C      1  0.4684730000000  0.3906730000000  0.4581160000000 1.0
C      1  0.5314780000000  0.6097200000000  0.4581310000000 1.0
C      1  0.3889880000000  0.4577700000000  0.4684330000000 1.0
C      1  0.6105980000000  0.4577930000000  0.5320710000000 1.0
C      1  0.3912520000000  0.5418550000000  0.5315390000000 1.0
C      1  0.4582500000000  0.5311170000000  0.6091100000000 1.0
C      1  0.5418750000000  0.5315140000000  0.3912280000000 1.0
C      1  0.4578060000000  0.4684150000000  0.3892250000000 1.0
C      1  0.5858680000000  0.5580490000000  0.4999470000000 1.0
C      1  0.5001620000000  0.5861220000000  0.5573360000000 1.0
C      1  0.5564260000000  0.5005170000000  0.5848240000000 1.0
C      1  0.4143950000000  0.4426070000000  0.5001440000000 1.0
C      1  0.4145950000000  0.5573460000000  0.4995520000000 1.0
C      1  0.5857020000000  0.4419270000000  0.4999560000000 1.0
C      1  0.4998430000000  0.4137550000000  0.5573610000000 1.0
C      1  0.4997150000000  0.5859880000000  0.4426200000000 1.0
C      1  0.5003830000000  0.4142330000000  0.4427320000000 1.0
C      1  0.4434820000000  0.4995420000000  0.5853400000000 1.0
C      1  0.4426920000000  0.5002070000000  0.4144700000000 1.0
C      1  0.5572210000000  0.4996440000000  0.4148420000000 1.0
C      1  0.5574000000000  0.5861770000000  0.5000990000000 1.0
C      1  0.5847890000000  0.5005130000000  0.5564020000000 1.0
C      1  0.4999960000000  0.5580550000000  0.5858730000000 1.0
C      1  0.4426760000000  0.4142300000000  0.5001620000000 1.0
C      1  0.5573920000000  0.4136570000000  0.4997160000000 1.0
C      1  0.4427680000000  0.5858300000000  0.4995560000000 1.0
C      1  0.4149550000000  0.4997830000000  0.5571630000000 1.0
C      1  0.5853080000000  0.4994980000000  0.4434300000000 1.0
C      1  0.4142780000000  0.5003030000000  0.4426540000000 1.0
C      1  0.4999940000000  0.4419530000000  0.5857670000000 1.0
C      1  0.5003790000000  0.4426470000000  0.4144950000000 1.0
C      1  0.4998020000000  0.5574150000000  0.4145630000000 1.0
C      1  0.4526310000000  0.3736830000000  0.5189590000000 1.0
C      1  0.5191290000000  0.4529450000000  0.3738050000000 1.0
C      1  0.3736140000000  0.5190800000000  0.4529980000000 1.0
C      1  0.5471360000000  0.6265480000000  0.5190520000000 1.0
C      1  0.5470100000000  0.3731220000000  0.4807940000000 1.0
C      1  0.4527740000000  0.6266010000000  0.4808300000000 1.0
C      1  0.4810450000000  0.5471790000000  0.3740590000000 1.0
C      1  0.4810680000000  0.4523270000000  0.6262330000000 1.0
C      1  0.5192140000000  0.5475980000000  0.6262400000000 1.0
C      1  0.6260810000000  0.4808870000000  0.4534850000000 1.0
C      1  0.6257770000000  0.5189540000000  0.5467320000000 1.0
C      1  0.3742710000000  0.4810300000000  0.5472990000000 1.0
C      1  0.3740010000000  0.4529180000000  0.5192270000000 1.0
C      1  0.4529700000000  0.5190880000000  0.3740000000000 1.0
C      1  0.5189230000000  0.3734080000000  0.4526930000000 1.0
C      1  0.6262230000000  0.5475450000000  0.5191510000000 1.0
C      1  0.3737940000000  0.5471900000000  0.4810820000000 1.0
C      1  0.6261820000000  0.4523080000000  0.4810660000000 1.0
C      1  0.5472190000000  0.4810590000000  0.3739600000000 1.0
C      1  0.4534940000000  0.4809190000000  0.6261150000000 1.0
C      1  0.5467880000000  0.5189960000000  0.6258090000000 1.0
C      1  0.4808840000000  0.6266840000000  0.4527380000000 1.0
C      1  0.5190450000000  0.6265140000000  0.5471140000000 1.0
C      1  0.4807010000000  0.3734460000000  0.5470560000000 1.0
C      1  0.5237820000000  0.5862850000000  0.4529330000000 1.0
C      1  0.4536250000000  0.5235860000000  0.5855710000000 1.0
C      1  0.5875550000000  0.4503010000000  0.5239940000000 1.0
C      1  0.4763190000000  0.4140790000000  0.4530320000000 1.0
C      1  0.4761850000000  0.5881270000000  0.5491560000000 1.0
C      1  0.5238220000000  0.4115360000000  0.5492220000000 1.0
C      1  0.5463060000000  0.4764650000000  0.5851030000000 1.0
C      1  0.5469130000000  0.5237090000000  0.4146590000000 1.0
C      1  0.4508590000000  0.4762210000000  0.4124470000000 1.0
C      1  0.4146080000000  0.5470110000000  0.5236050000000 1.0
C      1  0.4122300000000  0.4507520000000  0.4761540000000 1.0
C      1  0.5879360000000  0.5496800000000  0.4759110000000 1.0
C      1  0.5855140000000  0.5235420000000  0.4535760000000 1.0
C      1  0.5240340000000  0.4503090000000  0.5876610000000 1.0
C      1  0.4530580000000  0.5861120000000  0.5236300000000 1.0
C      1  0.4140990000000  0.4762460000000  0.4529800000000 1.0
C      1  0.5850230000000  0.4764620000000  0.5462760000000 1.0
C      1  0.4128650000000  0.5237780000000  0.5490510000000 1.0
C      1  0.4759580000000  0.5497120000000  0.5879840000000 1.0
C      1  0.5237910000000  0.5492390000000  0.4126580000000 1.0
C      1  0.4763150000000  0.4529810000000  0.4143390000000 1.0
C      1  0.5470580000000  0.4134070000000  0.5237740000000 1.0
C      1  0.4508130000000  0.4121720000000  0.4761740000000 1.0
C      1  0.5492540000000  0.5882560000000  0.4761190000000 1.0
C      1  0.5438210000000  0.5460280000000  0.4082290000000 1.0
C      1  0.4561680000000  0.5926040000000  0.5459290000000 1.0
C      1  0.5438120000000  0.4068930000000  0.5460450000000 1.0
C      1  0.5460650000000  0.5927920000000  0.4561090000000 1.0
C      1  0.4559970000000  0.5459170000000  0.5923070000000 1.0
C      1  0.5440260000000  0.4541160000000  0.5918170000000 1.0
C      1  0.4083430000000  0.5438060000000  0.5459500000000 1.0
C      1  0.5917080000000  0.4541050000000  0.5439880000000 1.0
C      1  0.4076270000000  0.4539530000000  0.4561590000000 1.0
C      1  0.5922480000000  0.5458740000000  0.4559490000000 1.0
C      1  0.4539910000000  0.4077000000000  0.4561490000000 1.0
C      1  0.4540170000000  0.4562040000000  0.4079080000000 1.0
END
