TITL C-3292282-5471-16 3.87249199021923 1000000 -3793.83706688706 0 0 540 (C1) n - 1
REM
REM in /scratch/bkarasulu/Only-C240/Try5-OnlyC540
REM
REM
REM
REM
REM
REM ./C.cell (44946988efc617adc4c7d3233e6f571a)
REM
REM compiler GCC version 9.2.1 20190827 (Red Hat 9.2.1-1)
REM options -cpp -mtune=generic -march=x86-64 -g -O0 -fpre-include=/usr/include/finclude/math-vector-fortran.h
REM seed 892009710 -1807639052 1105524291 469955635 514206366 1468758031 -992713762 -1411530808 806973962 -1650224563 943281925 1669424037 -1768206157 -978140817 817082905 1259596223 1501430021 -1423810171 -374202346 -1926582752 -1773637036 -1587277544 570915025 -1853021136 572637480 961133064 2086067505 1198512614 -319296620 429837116 -751675249 -1564827861 232681956
REM
CELL 1.54180  100.00000  100.00000  100.00000   90.00000   90.00000   90.00000
LATT -1
SFAC C  
C      1  0.5464520000000  0.4353730000000  0.4370650000000 1.0
C      1  0.4360090000000  0.4372020000000  0.5473220000000 1.0
C      1  0.4369670000000  0.5472630000000  0.4341900000000 1.0
C      1  0.4531660000000  0.5650160000000  0.4362170000000 1.0
C      1  0.5468560000000  0.5644010000000  0.5635000000000 1.0
C      1  0.4536660000000  0.4356170000000  0.5636160000000 1.0
C      1  0.5645860000000  0.5631300000000  0.5472230000000 1.0
C      1  0.4356970000000  0.5629800000000  0.4526480000000 1.0
C      1  0.5641430000000  0.4370320000000  0.4533170000000 1.0
C      1  0.5624540000000  0.4535100000000  0.4357830000000 1.0
C      1  0.4373920000000  0.4533490000000  0.5651690000000 1.0
C      1  0.5632260000000  0.5467630000000  0.5648650000000 1.0
C      1  0.5472200000000  0.4355180000000  0.5633690000000 1.0
C      1  0.4342230000000  0.4362190000000  0.4538050000000 1.0
C      1  0.4366560000000  0.5470130000000  0.5652110000000 1.0
C      1  0.4532940000000  0.5642340000000  0.5632470000000 1.0
C      1  0.5469270000000  0.5650400000000  0.4373390000000 1.0
C      1  0.4498800000000  0.4329080000000  0.4358960000000 1.0
C      1  0.5645990000000  0.5634700000000  0.4536600000000 1.0
C      1  0.4354260000000  0.5629230000000  0.5470240000000 1.0
C      1  0.5648680000000  0.4369500000000  0.5470110000000 1.0
C      1  0.5635160000000  0.4532230000000  0.5647360000000 1.0
C      1  0.4337830000000  0.4507220000000  0.4344390000000 1.0
C      1  0.5631050000000  0.5472010000000  0.4359560000000 1.0
C      1  0.4852410000000  0.5855540000000  0.4355320000000 1.0
C      1  0.5843800000000  0.4355950000000  0.4850890000000 1.0
C      1  0.4358160000000  0.4846710000000  0.5854620000000 1.0
C      1  0.5148670000000  0.4138400000000  0.4358330000000 1.0
C      1  0.4853980000000  0.4157260000000  0.5648760000000 1.0
C      1  0.5149890000000  0.5840320000000  0.5649160000000 1.0
C      1  0.4157690000000  0.5654180000000  0.4837870000000 1.0
C      1  0.5844730000000  0.5647280000000  0.5155300000000 1.0
C      1  0.4162500000000  0.4359280000000  0.5157210000000 1.0
C      1  0.5648470000000  0.5150600000000  0.5846320000000 1.0
C      1  0.4346050000000  0.5156460000000  0.4128710000000 1.0
C      1  0.5643410000000  0.4851810000000  0.4162480000000 1.0
C      1  0.4848930000000  0.5838150000000  0.5647030000000 1.0
C      1  0.5845940000000  0.4355600000000  0.5151990000000 1.0
C      1  0.4334540000000  0.4836340000000  0.4118990000000 1.0
C      1  0.5154950000000  0.4156860000000  0.5648340000000 1.0
C      1  0.4834860000000  0.4141930000000  0.4353330000000 1.0
C      1  0.5154880000000  0.5852870000000  0.4358060000000 1.0
C      1  0.4154850000000  0.5655160000000  0.5154600000000 1.0
C      1  0.5844500000000  0.5647980000000  0.4854130000000 1.0
C      1  0.4161690000000  0.4360550000000  0.4854490000000 1.0
C      1  0.5645570000000  0.5156950000000  0.4161380000000 1.0
C      1  0.4355460000000  0.5149210000000  0.5858940000000 1.0
C      1  0.5649710000000  0.4849440000000  0.5846210000000 1.0
C      1  0.4597950000000  0.5848240000000  0.5181290000000 1.0
C      1  0.5856020000000  0.5184170000000  0.4598690000000 1.0
C      1  0.5186730000000  0.4592740000000  0.5862680000000 1.0
C      1  0.5410180000000  0.4142160000000  0.5184430000000 1.0
C      1  0.4596040000000  0.4151470000000  0.4821730000000 1.0
C      1  0.5409450000000  0.5862460000000  0.4823100000000 1.0
C      1  0.4152760000000  0.4826180000000  0.4575990000000 1.0
C      1  0.5861330000000  0.4819020000000  0.5409250000000 1.0
C      1  0.4133920000000  0.5182800000000  0.5427370000000 1.0
C      1  0.4818770000000  0.5402470000000  0.5860080000000 1.0
C      1  0.5180750000000  0.5414640000000  0.4143920000000 1.0
C      1  0.4871790000000  0.4572150000000  0.4097360000000 1.0
C      1  0.4600230000000  0.5848070000000  0.4817890000000 1.0
C      1  0.5860590000000  0.5182830000000  0.5409770000000 1.0
C      1  0.5168190000000  0.4575860000000  0.4134270000000 1.0
C      1  0.5410500000000  0.4140750000000  0.4820610000000 1.0
C      1  0.4598760000000  0.4148030000000  0.5184980000000 1.0
C      1  0.5408090000000  0.5859630000000  0.5186720000000 1.0
C      1  0.4146950000000  0.4822840000000  0.5414070000000 1.0
C      1  0.5853130000000  0.4820190000000  0.4598970000000 1.0
C      1  0.4145910000000  0.5179890000000  0.4570890000000 1.0
C      1  0.4820400000000  0.5427140000000  0.4129510000000 1.0
C      1  0.5183060000000  0.5404090000000  0.5861060000000 1.0
C      1  0.4823010000000  0.4591900000000  0.5864840000000 1.0
C      1  0.4496460000000  0.4174420000000  0.5073600000000 1.0
C      1  0.4171090000000  0.5070080000000  0.4461680000000 1.0
C      1  0.5071170000000  0.4455250000000  0.4156900000000 1.0
C      1  0.5511130000000  0.5835880000000  0.5075350000000 1.0
C      1  0.4497840000000  0.5824020000000  0.4928530000000 1.0
C      1  0.5512220000000  0.4166690000000  0.4932350000000 1.0
C      1  0.5828630000000  0.4931950000000  0.4497100000000 1.0
C      1  0.4167310000000  0.4930490000000  0.5523730000000 1.0
C      1  0.5836430000000  0.5070950000000  0.5512240000000 1.0
C      1  0.4932460000000  0.5530430000000  0.4161560000000 1.0
C      1  0.5070590000000  0.5505830000000  0.5835930000000 1.0
C      1  0.4934850000000  0.4489710000000  0.5839040000000 1.0
C      1  0.4496510000000  0.4177860000000  0.4933390000000 1.0
C      1  0.4163610000000  0.5070610000000  0.5531520000000 1.0
C      1  0.5075230000000  0.4489890000000  0.5838370000000 1.0
C      1  0.5511470000000  0.5836710000000  0.4934960000000 1.0
C      1  0.4496560000000  0.5824910000000  0.5069040000000 1.0
C      1  0.5512630000000  0.4166640000000  0.5072800000000 1.0
C      1  0.5836850000000  0.4930530000000  0.5512090000000 1.0
C      1  0.4173690000000  0.4930100000000  0.4463600000000 1.0
C      1  0.5830350000000  0.5072360000000  0.4496540000000 1.0
C      1  0.4930130000000  0.5504880000000  0.5834780000000 1.0
C      1  0.5072660000000  0.5523320000000  0.4165150000000 1.0
C      1  0.4928960000000  0.4451710000000  0.4144870000000 1.0
C      1  0.4424780000000  0.4419210000000  0.4277960000000 1.0
C      1  0.4441810000000  0.4279700000000  0.4478720000000 1.0
C      1  0.4275880000000  0.4464430000000  0.4462010000000 1.0
C      1  0.5524820000000  0.5544220000000  0.4298590000000 1.0
C      1  0.4475800000000  0.5539390000000  0.5710150000000 1.0
C      1  0.5528760000000  0.4460690000000  0.5708590000000 1.0
C      1  0.5540930000000  0.5710350000000  0.4480430000000 1.0
C      1  0.4461800000000  0.5702160000000  0.5524520000000 1.0
C      1  0.5543320000000  0.4294430000000  0.5526730000000 1.0
C      1  0.5706370000000  0.5527780000000  0.4465230000000 1.0
C      1  0.4291710000000  0.5526880000000  0.5546390000000 1.0
C      1  0.5709740000000  0.4476150000000  0.5541380000000 1.0
C      1  0.4480540000000  0.4461260000000  0.5711800000000 1.0
C      1  0.4465330000000  0.4296130000000  0.5529110000000 1.0
C      1  0.4299270000000  0.4478400000000  0.5545230000000 1.0
C      1  0.5525210000000  0.5538420000000  0.5709660000000 1.0
C      1  0.4474610000000  0.5547680000000  0.4283400000000 1.0
C      1  0.5519500000000  0.4461570000000  0.4296660000000 1.0
C      1  0.5539880000000  0.5705630000000  0.5528720000000 1.0
C      1  0.4461980000000  0.5706180000000  0.4472610000000 1.0
C      1  0.5536790000000  0.4294200000000  0.4477340000000 1.0
C      1  0.5707040000000  0.5524510000000  0.5543270000000 1.0
C      1  0.4296150000000  0.5526370000000  0.4449650000000 1.0
C      1  0.5700750000000  0.4478330000000  0.4462560000000 1.0
C      1  0.5481610000000  0.5387430000000  0.4528320000000 1.0
C      1  0.5385910000000  0.4525020000000  0.5485770000000 1.0
C      1  0.4519070000000  0.5476130000000  0.5386090000000 1.0
C      1  0.4503940000000  0.4608090000000  0.4491010000000 1.0
C      1  0.5486100000000  0.4618080000000  0.5478270000000 1.0
C      1  0.4510180000000  0.5377870000000  0.5481280000000 1.0
C      1  0.4612630000000  0.5468830000000  0.5485710000000 1.0
C      1  0.5382090000000  0.5481120000000  0.4520630000000 1.0
C      1  0.4604770000000  0.4513470000000  0.4482080000000 1.0
C      1  0.5478550000000  0.4517920000000  0.5385190000000 1.0
C      1  0.4520640000000  0.4515170000000  0.4590570000000 1.0
C      1  0.5474710000000  0.5487610000000  0.4621350000000 1.0
C      1  0.5484540000000  0.5381870000000  0.5478340000000 1.0
C      1  0.5376410000000  0.4521310000000  0.4517950000000 1.0
C      1  0.4525390000000  0.5478070000000  0.4604480000000 1.0
C      1  0.4521980000000  0.4620410000000  0.5483050000000 1.0
C      1  0.5474890000000  0.4616390000000  0.4526530000000 1.0
C      1  0.4516740000000  0.5381070000000  0.4507960000000 1.0
C      1  0.4617300000000  0.5474370000000  0.4503020000000 1.0
C      1  0.5383830000000  0.5474350000000  0.5485740000000 1.0
C      1  0.4622410000000  0.4527520000000  0.5489620000000 1.0
C      1  0.5468930000000  0.4515350000000  0.4619020000000 1.0
C      1  0.4529550000000  0.4521020000000  0.5389260000000 1.0
C      1  0.5476990000000  0.5482430000000  0.5385700000000 1.0
C      1  0.4489840000000  0.4686800000000  0.4259880000000 1.0
C      1  0.4746940000000  0.4357890000000  0.4487330000000 1.0
C      1  0.4362980000000  0.4535130000000  0.4754610000000 1.0
C      1  0.5473330000000  0.5243580000000  0.4362800000000 1.0
C      1  0.4519950000000  0.5236000000000  0.5648920000000 1.0
C      1  0.5478330000000  0.4763230000000  0.5643330000000 1.0
C      1  0.5237450000000  0.5646690000000  0.4528120000000 1.0
C      1  0.4762210000000  0.5634370000000  0.5474520000000 1.0
C      1  0.5240550000000  0.4360560000000  0.5478020000000 1.0
C      1  0.5640410000000  0.5477450000000  0.4767560000000 1.0
C      1  0.4347960000000  0.5468700000000  0.5241750000000 1.0
C      1  0.5642510000000  0.4526210000000  0.5238970000000 1.0
C      1  0.4529240000000  0.4764860000000  0.5649260000000 1.0
C      1  0.4767930000000  0.4361780000000  0.5479230000000 1.0
C      1  0.4365250000000  0.4530040000000  0.5244770000000 1.0
C      1  0.5476730000000  0.5235720000000  0.5643240000000 1.0
C      1  0.4526080000000  0.5239240000000  0.4333560000000 1.0
C      1  0.5469330000000  0.4765780000000  0.4363310000000 1.0
C      1  0.5237770000000  0.5638160000000  0.5477860000000 1.0
C      1  0.4762110000000  0.5643560000000  0.4519030000000 1.0
C      1  0.5229270000000  0.4354550000000  0.4522470000000 1.0
C      1  0.5641580000000  0.5475730000000  0.5240500000000 1.0
C      1  0.4352150000000  0.5466090000000  0.4751600000000 1.0
C      1  0.5638680000000  0.4527360000000  0.4764380000000 1.0
C      1  0.5856580000000  0.4374320000000  0.5289130000000 1.0
C      1  0.4373710000000  0.5286970000000  0.5865310000000 1.0
C      1  0.5291870000000  0.5861170000000  0.4378340000000 1.0
C      1  0.4143110000000  0.5628410000000  0.5291700000000 1.0
C      1  0.5854180000000  0.5629470000000  0.4716910000000 1.0
C      1  0.4144820000000  0.4382650000000  0.4718600000000 1.0
C      1  0.5631460000000  0.4712230000000  0.5856220000000 1.0
C      1  0.4344830000000  0.4698370000000  0.4111160000000 1.0
C      1  0.5627690000000  0.5294100000000  0.4151010000000 1.0
C      1  0.4698360000000  0.4126880000000  0.4377190000000 1.0
C      1  0.5292020000000  0.4146560000000  0.5629400000000 1.0
C      1  0.4711960000000  0.5848250000000  0.5627200000000 1.0
C      1  0.5851250000000  0.4374520000000  0.4713530000000 1.0
C      1  0.4375800000000  0.5293490000000  0.4123770000000 1.0
C      1  0.5287100000000  0.5851410000000  0.5631170000000 1.0
C      1  0.4147180000000  0.5627210000000  0.4701050000000 1.0
C      1  0.5854800000000  0.5628160000000  0.5292380000000 1.0
C      1  0.4151780000000  0.4376870000000  0.5294250000000 1.0
C      1  0.5618220000000  0.4715260000000  0.4149590000000 1.0
C      1  0.4378320000000  0.4709740000000  0.5862750000000 1.0
C      1  0.5629020000000  0.5287640000000  0.5856620000000 1.0
C      1  0.4716800000000  0.4147600000000  0.5630330000000 1.0
C      1  0.5285330000000  0.4136470000000  0.4381650000000 1.0
C      1  0.4714590000000  0.5861360000000  0.4373500000000 1.0
C      1  0.4861180000000  0.5861360000000  0.4600820000000 1.0
C      1  0.5860450000000  0.4601650000000  0.4860060000000 1.0
C      1  0.4603420000000  0.4857160000000  0.5872760000000 1.0
C      1  0.5134590000000  0.4132370000000  0.4601490000000 1.0
C      1  0.4862330000000  0.4140150000000  0.5402550000000 1.0
C      1  0.5142760000000  0.5860070000000  0.5403370000000 1.0
C      1  0.4128720000000  0.5408560000000  0.4859260000000 1.0
C      1  0.5863900000000  0.5401520000000  0.5146000000000 1.0
C      1  0.4144110000000  0.4608750000000  0.5148910000000 1.0
C      1  0.5402690000000  0.5140850000000  0.5865500000000 1.0
C      1  0.4587590000000  0.5128710000000  0.4112200000000 1.0
C      1  0.5399070000000  0.4869490000000  0.4142380000000 1.0
C      1  0.4859390000000  0.5855910000000  0.5401480000000 1.0
C      1  0.5864240000000  0.4601390000000  0.5143670000000 1.0
C      1  0.4588220000000  0.4854230000000  0.4104880000000 1.0
C      1  0.5145940000000  0.4138710000000  0.5402490000000 1.0
C      1  0.4851400000000  0.4155570000000  0.4597760000000 1.0
C      1  0.5144430000000  0.5869540000000  0.4603380000000 1.0
C      1  0.4124450000000  0.5410790000000  0.5133500000000 1.0
C      1  0.5862220000000  0.5402150000000  0.4862470000000 1.0
C      1  0.4147290000000  0.4606490000000  0.4869200000000 1.0
C      1  0.5395990000000  0.5149310000000  0.4140230000000 1.0
C      1  0.4601270000000  0.5140570000000  0.5868490000000 1.0
C      1  0.5403980000000  0.4857330000000  0.5865720000000 1.0
C      1  0.4811220000000  0.5726640000000  0.5409330000000 1.0
C      1  0.5732930000000  0.5411060000000  0.4814790000000 1.0
C      1  0.5412120000000  0.4809840000000  0.5736360000000 1.0
C      1  0.5193470000000  0.4268020000000  0.5411420000000 1.0
C      1  0.4794270000000  0.4277850000000  0.4569690000000 1.0
C      1  0.5189450000000  0.5739200000000  0.4594040000000 1.0
C      1  0.4274300000000  0.4598110000000  0.4811360000000 1.0
C      1  0.5734870000000  0.4592560000000  0.5191230000000 1.0
C      1  0.4249790000000  0.5408850000000  0.5194630000000 1.0
C      1  0.4589000000000  0.5189420000000  0.5740060000000 1.0
C      1  0.5407450000000  0.5197970000000  0.4268860000000 1.0
C      1  0.4582950000000  0.4771290000000  0.4213210000000 1.0
C      1  0.4811080000000  0.5733440000000  0.4587700000000 1.0
C      1  0.5734480000000  0.5409670000000  0.5193370000000 1.0
C      1  0.5405150000000  0.4817110000000  0.4271880000000 1.0
C      1  0.5174960000000  0.4264440000000  0.4586770000000 1.0
C      1  0.4814760000000  0.4269440000000  0.5412230000000 1.0
C      1  0.5190660000000  0.5730850000000  0.5411490000000 1.0
C      1  0.4272320000000  0.4596340000000  0.5198060000000 1.0
C      1  0.5731270000000  0.4593160000000  0.4812090000000 1.0
C      1  0.4254200000000  0.5406690000000  0.4799240000000 1.0
C      1  0.4587580000000  0.5189910000000  0.4237650000000 1.0
C      1  0.5410840000000  0.5188260000000  0.5736040000000 1.0
C      1  0.4594730000000  0.4812220000000  0.5742370000000 1.0
C      1  0.4823990000000  0.5939250000000  0.4932710000000 1.0
C      1  0.5943140000000  0.4932630000000  0.4824150000000 1.0
C      1  0.4935090000000  0.4818540000000  0.5950800000000 1.0
C      1  0.5182650000000  0.4059140000000  0.4932540000000 1.0
C      1  0.4824940000000  0.4063670000000  0.5070140000000 1.0
C      1  0.5181800000000  0.5945680000000  0.5073610000000 1.0
C      1  0.4078160000000  0.5078110000000  0.4808120000000 1.0
C      1  0.5946480000000  0.5070630000000  0.5182960000000 1.0
C      1  0.4070990000000  0.4942650000000  0.5185160000000 1.0
C      1  0.5071720000000  0.5177430000000  0.5947980000000 1.0
C      1  0.4919710000000  0.5190870000000  0.4059670000000 1.0
C      1  0.5073350000000  0.4817380000000  0.4061380000000 1.0
C      1  0.4823530000000  0.5938920000000  0.5070990000000 1.0
C      1  0.5946600000000  0.4932070000000  0.5182690000000 1.0
C      1  0.4930530000000  0.4817290000000  0.4049420000000 1.0
C      1  0.5183280000000  0.4058650000000  0.5071110000000 1.0
C      1  0.4824980000000  0.4068470000000  0.4931760000000 1.0
C      1  0.5182400000000  0.5947260000000  0.4935100000000 1.0
C      1  0.4066990000000  0.5083860000000  0.5190090000000 1.0
C      1  0.5943550000000  0.5071100000000  0.4824410000000 1.0
C      1  0.4083570000000  0.4934350000000  0.4811120000000 1.0
C      1  0.5061930000000  0.5186250000000  0.4063610000000 1.0
C      1  0.4933250000000  0.5177210000000  0.5948010000000 1.0
C      1  0.5073630000000  0.4818840000000  0.5949620000000 1.0
C      1  0.4730130000000  0.4100200000000  0.5177340000000 1.0
C      1  0.4104940000000  0.5153050000000  0.4693010000000 1.0
C      1  0.5145190000000  0.4701400000000  0.4093660000000 1.0
C      1  0.5276400000000  0.5906880000000  0.5179960000000 1.0
C      1  0.4730900000000  0.5897830000000  0.4825810000000 1.0
C      1  0.5278880000000  0.4092830000000  0.4825780000000 1.0
C      1  0.5902590000000  0.4826590000000  0.4729770000000 1.0
C      1  0.4105080000000  0.4835530000000  0.5279090000000 1.0
C      1  0.5908210000000  0.5176690000000  0.5278160000000 1.0
C      1  0.4845440000000  0.5306300000000  0.4084820000000 1.0
C      1  0.5177450000000  0.5272630000000  0.5909060000000 1.0
C      1  0.4828870000000  0.4723140000000  0.5913640000000 1.0
C      1  0.4729130000000  0.4110150000000  0.4827790000000 1.0
C      1  0.4090420000000  0.5158260000000  0.5305960000000 1.0
C      1  0.5179980000000  0.4724290000000  0.5910510000000 1.0
C      1  0.5278150000000  0.5910910000000  0.4828930000000 1.0
C      1  0.4728830000000  0.5897700000000  0.5176210000000 1.0
C      1  0.5278390000000  0.4095240000000  0.5177720000000 1.0
C      1  0.5908630000000  0.4825610000000  0.5277550000000 1.0
C      1  0.4114500000000  0.4853300000000  0.4702490000000 1.0
C      1  0.5904370000000  0.5177500000000  0.4730000000000 1.0
C      1  0.4826450000000  0.5271260000000  0.5908440000000 1.0
C      1  0.5168540000000  0.5280500000000  0.4100230000000 1.0
C      1  0.4872860000000  0.4689670000000  0.4066540000000 1.0
C      1  0.4701140000000  0.4530340000000  0.5805280000000 1.0
C      1  0.4538270000000  0.5788920000000  0.4694870000000 1.0
C      1  0.5792450000000  0.4698290000000  0.4537050000000 1.0
C      1  0.5304960000000  0.5466740000000  0.5802270000000 1.0
C      1  0.4693780000000  0.5490220000000  0.4185980000000 1.0
C      1  0.5298330000000  0.4522530000000  0.4198850000000 1.0
C      1  0.5471680000000  0.4200740000000  0.4699060000000 1.0
C      1  0.4536460000000  0.4205120000000  0.5308020000000 1.0
C      1  0.5469480000000  0.5799640000000  0.5308700000000 1.0
C      1  0.4201340000000  0.5306480000000  0.4506940000000 1.0
C      1  0.5800870000000  0.5304640000000  0.5471850000000 1.0
C      1  0.4206760000000  0.4699500000000  0.5473970000000 1.0
C      1  0.4616360000000  0.4447770000000  0.4151910000000 1.0
C      1  0.4534920000000  0.5789090000000  0.5302970000000 1.0
C      1  0.5802430000000  0.4696750000000  0.5471020000000 1.0
C      1  0.5304000000000  0.5474000000000  0.4204590000000 1.0
C      1  0.4696120000000  0.5464300000000  0.5800580000000 1.0
C      1  0.5308730000000  0.4531180000000  0.5802720000000 1.0
C      1  0.5472240000000  0.4201340000000  0.5306520000000 1.0
C      1  0.4530940000000  0.4206250000000  0.4698260000000 1.0
C      1  0.5471110000000  0.5803110000000  0.4701170000000 1.0
C      1  0.4190520000000  0.5308940000000  0.5491020000000 1.0
C      1  0.5797690000000  0.5306720000000  0.4536570000000 1.0
C      1  0.4202860000000  0.4697360000000  0.4515650000000 1.0
C      1  0.5068860000000  0.5877300000000  0.5534430000000 1.0
C      1  0.5882180000000  0.5533230000000  0.5073410000000 1.0
C      1  0.5534620000000  0.5068600000000  0.5884040000000 1.0
C      1  0.4935200000000  0.4120340000000  0.5534010000000 1.0
C      1  0.5061190000000  0.4109480000000  0.4470630000000 1.0
C      1  0.4933950000000  0.5887130000000  0.4471060000000 1.0
C      1  0.4126480000000  0.4474120000000  0.5076640000000 1.0
C      1  0.5880780000000  0.4470360000000  0.4932330000000 1.0
C      1  0.4118210000000  0.5546930000000  0.4925400000000 1.0
C      1  0.4471600000000  0.4929320000000  0.5892390000000 1.0
C      1  0.5533730000000  0.4937850000000  0.4126340000000 1.0
C      1  0.4452450000000  0.5063910000000  0.4095710000000 1.0
C      1  0.5072090000000  0.5889110000000  0.4471720000000 1.0
C      1  0.5881670000000  0.5533440000000  0.4935420000000 1.0
C      1  0.5531480000000  0.5076140000000  0.4123700000000 1.0
C      1  0.4922840000000  0.4119230000000  0.4468810000000 1.0
C      1  0.5073170000000  0.4119890000000  0.5533990000000 1.0
C      1  0.4930920000000  0.5875690000000  0.5533300000000 1.0
C      1  0.4128750000000  0.4472470000000  0.4938630000000 1.0
C      1  0.5882470000000  0.4470090000000  0.5070370000000 1.0
C      1  0.4116380000000  0.5547760000000  0.5066400000000 1.0
C      1  0.4449980000000  0.4922010000000  0.4091640000000 1.0
C      1  0.5535250000000  0.4930620000000  0.5884000000000 1.0
C      1  0.4470860000000  0.5067450000000  0.5891890000000 1.0
C      1  0.4191330000000  0.5452730000000  0.5474030000000 1.0
C      1  0.5448440000000  0.5467250000000  0.4202690000000 1.0
C      1  0.5465820000000  0.4198730000000  0.5450860000000 1.0
C      1  0.5804960000000  0.4552460000000  0.5463650000000 1.0
C      1  0.4192500000000  0.4554700000000  0.4537820000000 1.0
C      1  0.5801440000000  0.5451140000000  0.4542750000000 1.0
C      1  0.4483280000000  0.4476630000000  0.4161390000000 1.0
C      1  0.5453100000000  0.4537860000000  0.5804720000000 1.0
C      1  0.4551500000000  0.5461410000000  0.5805770000000 1.0
C      1  0.4540500000000  0.5795070000000  0.5446920000000 1.0
C      1  0.5464080000000  0.5806060000000  0.4557050000000 1.0
C      1  0.4526340000000  0.4190740000000  0.4554180000000 1.0
C      1  0.4198290000000  0.5449820000000  0.4522620000000 1.0
C      1  0.5449340000000  0.5460560000000  0.5805070000000 1.0
C      1  0.5460460000000  0.4199050000000  0.4555500000000 1.0
C      1  0.5796190000000  0.4553880000000  0.4540430000000 1.0
C      1  0.4204010000000  0.4555140000000  0.5467860000000 1.0
C      1  0.5803010000000  0.5449010000000  0.5465700000000 1.0
C      1  0.4557030000000  0.4537540000000  0.5807980000000 1.0
C      1  0.5442150000000  0.4537420000000  0.4200200000000 1.0
C      1  0.4549770000000  0.5475630000000  0.4183340000000 1.0
C      1  0.4540620000000  0.5798650000000  0.4550820000000 1.0
C      1  0.5462140000000  0.5801330000000  0.5453030000000 1.0
C      1  0.4542610000000  0.4200920000000  0.5452390000000 1.0
C      1  0.4840210000000  0.4354690000000  0.4206030000000 1.0
C      1  0.4387020000000  0.4251020000000  0.4867520000000 1.0
C      1  0.4235170000000  0.4856160000000  0.4352080000000 1.0
C      1  0.5140700000000  0.5630830000000  0.4237840000000 1.0
C      1  0.4863460000000  0.5614330000000  0.5762680000000 1.0
C      1  0.5141560000000  0.4379850000000  0.5766830000000 1.0
C      1  0.5621670000000  0.5765680000000  0.4868330000000 1.0
C      1  0.4383430000000  0.5758230000000  0.5137100000000 1.0
C      1  0.5623000000000  0.4237680000000  0.5139070000000 1.0
C      1  0.5760640000000  0.5139700000000  0.4385680000000 1.0
C      1  0.4231610000000  0.5138410000000  0.5640330000000 1.0
C      1  0.5766540000000  0.4863690000000  0.5622610000000 1.0
C      1  0.4868240000000  0.4379710000000  0.5767650000000 1.0
C      1  0.4385540000000  0.4243190000000  0.5141240000000 1.0
C      1  0.4239270000000  0.4862060000000  0.5631520000000 1.0
C      1  0.5136820000000  0.5616790000000  0.5765780000000 1.0
C      1  0.4864300000000  0.5637880000000  0.4231280000000 1.0
C      1  0.5141670000000  0.4356600000000  0.4232120000000 1.0
C      1  0.5621340000000  0.5764690000000  0.5141790000000 1.0
C      1  0.4386460000000  0.5755720000000  0.4859220000000 1.0
C      1  0.5621910000000  0.4238670000000  0.4865780000000 1.0
C      1  0.5765460000000  0.5137140000000  0.5622730000000 1.0
C      1  0.4234960000000  0.5141720000000  0.4352220000000 1.0
C      1  0.5756640000000  0.4865640000000  0.4387140000000 1.0
C      1  0.5570390000000  0.4291650000000  0.4744670000000 1.0
C      1  0.4294810000000  0.4744000000000  0.5576610000000 1.0
C      1  0.4740550000000  0.5584960000000  0.4279630000000 1.0
C      1  0.4438500000000  0.5698650000000  0.4740140000000 1.0
C      1  0.5570190000000  0.5710790000000  0.5262380000000 1.0
C      1  0.4435940000000  0.4294660000000  0.5263020000000 1.0
C      1  0.5711670000000  0.5257910000000  0.5572000000000 1.0
C      1  0.4289690000000  0.5261790000000  0.4406420000000 1.0
C      1  0.5702330000000  0.4744960000000  0.4438030000000 1.0
C      1  0.5255980000000  0.4420630000000  0.4288400000000 1.0
C      1  0.4747160000000  0.4430820000000  0.5715020000000 1.0
C      1  0.5258480000000  0.5566960000000  0.5713030000000 1.0
C      1  0.5572360000000  0.4290820000000  0.5260190000000 1.0
C      1  0.4286100000000  0.4733630000000  0.4405260000000 1.0
C      1  0.4742930000000  0.5562420000000  0.5709120000000 1.0
C      1  0.4433060000000  0.5701580000000  0.5257250000000 1.0
C      1  0.5570690000000  0.5712930000000  0.4747160000000 1.0
C      1  0.4437480000000  0.4301900000000  0.4744920000000 1.0
C      1  0.5708330000000  0.5261220000000  0.4436120000000 1.0
C      1  0.4281120000000  0.5262070000000  0.5588590000000 1.0
C      1  0.5713440000000  0.4742600000000  0.5571790000000 1.0
C      1  0.5262320000000  0.4430970000000  0.5713370000000 1.0
C      1  0.4704750000000  0.4396560000000  0.4239510000000 1.0
C      1  0.5259100000000  0.5576010000000  0.4293090000000 1.0
C      1  0.5164500000000  0.4079960000000  0.4725490000000 1.0
C      1  0.4094900000000  0.4737820000000  0.5160440000000 1.0
C      1  0.4697460000000  0.5066550000000  0.4053380000000 1.0
C      1  0.4845540000000  0.5913260000000  0.4727480000000 1.0
C      1  0.5161150000000  0.5917220000000  0.5279130000000 1.0
C      1  0.4844600000000  0.4085460000000  0.5276860000000 1.0
C      1  0.5920100000000  0.5276630000000  0.5163660000000 1.0
C      1  0.4067600000000  0.5301700000000  0.4924370000000 1.0
C      1  0.5915970000000  0.4726960000000  0.4843890000000 1.0
C      1  0.5284620000000  0.4880810000000  0.4081610000000 1.0
C      1  0.4728560000000  0.4837280000000  0.5927650000000 1.0
C      1  0.5277820000000  0.5158540000000  0.5921720000000 1.0
C      1  0.5163590000000  0.4083150000000  0.5277270000000 1.0
C      1  0.4090750000000  0.4723440000000  0.4879230000000 1.0
C      1  0.4727710000000  0.5156310000000  0.5921460000000 1.0
C      1  0.4842190000000  0.5912160000000  0.5276780000000 1.0
C      1  0.5164180000000  0.5924280000000  0.4728530000000 1.0
C      1  0.4842930000000  0.4107320000000  0.4727190000000 1.0
C      1  0.5917770000000  0.5277040000000  0.4844620000000 1.0
C      1  0.4064040000000  0.5303720000000  0.5067570000000 1.0
C      1  0.5920450000000  0.4726060000000  0.5162650000000 1.0
C      1  0.5279290000000  0.4839350000000  0.5922170000000 1.0
C      1  0.4699550000000  0.4924360000000  0.4049220000000 1.0
C      1  0.5267570000000  0.5162870000000  0.4089220000000 1.0
C      1  0.4627880000000  0.5858550000000  0.5534470000000 1.0
C      1  0.5864080000000  0.5539130000000  0.4630420000000 1.0
C      1  0.5541540000000  0.4625420000000  0.5866920000000 1.0
C      1  0.5378450000000  0.4136030000000  0.5539110000000 1.0
C      1  0.4609840000000  0.4122020000000  0.4465780000000 1.0
C      1  0.5377120000000  0.5870340000000  0.4469840000000 1.0
C      1  0.4130970000000  0.4475980000000  0.4635000000000 1.0
C      1  0.5867210000000  0.4464720000000  0.5375450000000 1.0
C      1  0.4132380000000  0.5539640000000  0.5380690000000 1.0
C      1  0.4462340000000  0.5375280000000  0.5869030000000 1.0
C      1  0.5536830000000  0.5380210000000  0.4139750000000 1.0
C      1  0.4437390000000  0.4609500000000  0.4138200000000 1.0
C      1  0.4627280000000  0.5863280000000  0.4463210000000 1.0
C      1  0.5865470000000  0.5537640000000  0.5378570000000 1.0
C      1  0.5528240000000  0.4628280000000  0.4138010000000 1.0
C      1  0.5370130000000  0.4133950000000  0.4473420000000 1.0
C      1  0.4630150000000  0.4137810000000  0.5540130000000 1.0
C      1  0.5373800000000  0.5862800000000  0.5541210000000 1.0
C      1  0.4140750000000  0.4466920000000  0.5381020000000 1.0
C      1  0.5858740000000  0.4464750000000  0.4626880000000 1.0
C      1  0.4136620000000  0.5535890000000  0.4614500000000 1.0
C      1  0.4463380000000  0.5383760000000  0.4121610000000 1.0
C      1  0.5537880000000  0.5373250000000  0.5867440000000 1.0
C      1  0.4469690000000  0.4624350000000  0.5872350000000 1.0
C      1  0.5103220000000  0.4240740000000  0.5758100000000 1.0
C      1  0.4244350000000  0.5761020000000  0.5105370000000 1.0
C      1  0.5753170000000  0.5102760000000  0.4246800000000 1.0
C      1  0.4900340000000  0.5753860000000  0.5756370000000 1.0
C      1  0.5104050000000  0.5770620000000  0.4247180000000 1.0
C      1  0.4879100000000  0.4219370000000  0.4237570000000 1.0
C      1  0.5761900000000  0.4246030000000  0.5100180000000 1.0
C      1  0.4247690000000  0.4251760000000  0.4903220000000 1.0
C      1  0.5760680000000  0.5757360000000  0.4906580000000 1.0
C      1  0.4232220000000  0.4889670000000  0.4212090000000 1.0
C      1  0.5758620000000  0.4901910000000  0.5761750000000 1.0
C      1  0.4244520000000  0.5096750000000  0.5778020000000 1.0
C      1  0.5104130000000  0.4218110000000  0.4246440000000 1.0
C      1  0.4246660000000  0.5760300000000  0.4887630000000 1.0
C      1  0.5757780000000  0.5098960000000  0.5761840000000 1.0
C      1  0.4905170000000  0.5775860000000  0.4243850000000 1.0
C      1  0.5097630000000  0.5755530000000  0.5757880000000 1.0
C      1  0.4906470000000  0.4240690000000  0.5758530000000 1.0
C      1  0.5761030000000  0.4246050000000  0.4903670000000 1.0
C      1  0.4247040000000  0.4250790000000  0.5103650000000 1.0
C      1  0.5760510000000  0.5756720000000  0.5103580000000 1.0
C      1  0.4247880000000  0.4897890000000  0.5771670000000 1.0
C      1  0.5752330000000  0.4901430000000  0.4247970000000 1.0
C      1  0.4235830000000  0.5110320000000  0.4212910000000 1.0
C      1  0.5955520000000  0.5168400000000  0.4934540000000 1.0
C      1  0.5170620000000  0.4929370000000  0.5959550000000 1.0
C      1  0.4932680000000  0.5951790000000  0.5169220000000 1.0
C      1  0.4070740000000  0.4847130000000  0.4929570000000 1.0
C      1  0.5956640000000  0.4834900000000  0.5072330000000 1.0
C      1  0.4050290000000  0.5161060000000  0.5072300000000 1.0
C      1  0.4836310000000  0.5066790000000  0.5959920000000 1.0
C      1  0.5155910000000  0.5075490000000  0.4055850000000 1.0
C      1  0.4843570000000  0.4926090000000  0.4035830000000 1.0
C      1  0.5073020000000  0.4048160000000  0.5168250000000 1.0
C      1  0.4934180000000  0.4062450000000  0.4832770000000 1.0
C      1  0.5072640000000  0.5957630000000  0.4837370000000 1.0
C      1  0.5956610000000  0.5168220000000  0.5072950000000 1.0
C      1  0.5162780000000  0.4932330000000  0.4057450000000 1.0
C      1  0.4934300000000  0.5953380000000  0.4836080000000 1.0
C      1  0.4065520000000  0.4850750000000  0.5072580000000 1.0
C      1  0.5955010000000  0.4834950000000  0.4933940000000 1.0
C      1  0.4055000000000  0.5158530000000  0.4923050000000 1.0
C      1  0.4840140000000  0.5074990000000  0.4039990000000 1.0
C      1  0.5169740000000  0.5067790000000  0.5959170000000 1.0
C      1  0.4837410000000  0.4928350000000  0.5962080000000 1.0
C      1  0.5072250000000  0.4052530000000  0.4835560000000 1.0
C      1  0.4934670000000  0.4049470000000  0.5167720000000 1.0
C      1  0.5071010000000  0.5954130000000  0.5170370000000 1.0
C      1  0.5570000000000  0.4681010000000  0.4417240000000 1.0
C      1  0.4685970000000  0.4416190000000  0.5580950000000 1.0
C      1  0.4415030000000  0.5567020000000  0.4674070000000 1.0
C      1  0.4426510000000  0.5321170000000  0.4393440000000 1.0
C      1  0.5577570000000  0.5318590000000  0.5588550000000 1.0
C      1  0.4428480000000  0.4682620000000  0.5593730000000 1.0
C      1  0.5320050000000  0.5583950000000  0.5579390000000 1.0
C      1  0.4680760000000  0.5590350000000  0.4416220000000 1.0
C      1  0.5315440000000  0.4409310000000  0.4424510000000 1.0
C      1  0.5581920000000  0.4426290000000  0.4683350000000 1.0
C      1  0.4419020000000  0.4427460000000  0.5325890000000 1.0
C      1  0.5586910000000  0.5576710000000  0.5323170000000 1.0
C      1  0.5579650000000  0.4681170000000  0.5588360000000 1.0
C      1  0.4653890000000  0.4397620000000  0.4389470000000 1.0
C      1  0.4409580000000  0.5569070000000  0.5321070000000 1.0
C      1  0.4418630000000  0.5319040000000  0.5595620000000 1.0
C      1  0.5575580000000  0.5324220000000  0.4418020000000 1.0
C      1  0.4406610000000  0.4653710000000  0.4376640000000 1.0
C      1  0.5320080000000  0.5592090000000  0.4427150000000 1.0
C      1  0.4680200000000  0.5579140000000  0.5575730000000 1.0
C      1  0.5323240000000  0.4414630000000  0.5579330000000 1.0
C      1  0.5588590000000  0.4424720000000  0.5321540000000 1.0
C      1  0.4415960000000  0.4431040000000  0.4673340000000 1.0
C      1  0.5585660000000  0.5578980000000  0.4685610000000 1.0
C      1  0.5839030000000  0.5001530000000  0.4200210000000 1.0
C      1  0.4159210000000  0.4994300000000  0.5823860000000 1.0
C      1  0.4204480000000  0.5836290000000  0.4995780000000 1.0
C      1  0.5005040000000  0.4192340000000  0.5847570000000 1.0
C      1  0.5809440000000  0.4156450000000  0.5001650000000 1.0
C      1  0.5007300000000  0.5822670000000  0.4158780000000 1.0
C      1  0.4201120000000  0.4163840000000  0.5002760000000 1.0
C      1  0.5808550000000  0.5846320000000  0.5005410000000 1.0
C      1  0.4162920000000  0.5000780000000  0.4171720000000 1.0
C      1  0.5847590000000  0.5000780000000  0.5809500000000 1.0
C      1  0.4997900000000  0.5802110000000  0.5846490000000 1.0
C      1  0.4994340000000  0.4172200000000  0.4178280000000 1.0
END
