TITL C-3450919-8329-6 114.757964250193 1000000 -2074.56546636161 0 0 300 (C1) n - 1
REM
REM in /home/nfs/bkarasulu/CARBON/AIRSS/Generating-Clusters/GAP-ML-2020/Higher-Symm/Selected-Sizes/Larger-Clusters
REM
REM
REM
REM
REM
REM ./C.cell (2cf5181f0f1d4d5b12b972d32ad12063)
REM
REM compiler GCC version 9.2.1 20190827 (Red Hat 9.2.1-1)
REM options -cpp -mtune=generic -march=x86-64 -g -O0 -fpre-include=/usr/include/finclude/math-vector-fortran.h
REM seed -114926098 -1875683508 -1580972732 1051912307 1106189436 -545822740 982756427 -248670844 -544825711 -463296465 -779842631 1181131782 -1519174737 -656431682 105730313 -1320738023 -1914086579 1319222039 1363662181 -149732315 -892921570 -1515148172 1790574103 1008400429 7526487 -608086433 1379328705 1697433927 1457450449 -918343632 -474376956 -1720251581 1487893758
REM
CELL 1.54180  100.00000  100.00000  100.00000   90.00000   90.00000   90.00000
LATT -1
SFAC C  
C      1  0.4597280000000  0.4929330000000  0.5395600000000 1.0
C      1  0.4929650000000  0.5396480000000  0.4599150000000 1.0
C      1  0.5395130000000  0.4596760000000  0.4931160000000 1.0
C      1  0.5403320000000  0.4931270000000  0.4605110000000 1.0
C      1  0.5403180000000  0.5069430000000  0.5394870000000 1.0
C      1  0.4597740000000  0.5069430000000  0.4604890000000 1.0
C      1  0.5068340000000  0.5394610000000  0.5403390000000 1.0
C      1  0.5069300000000  0.4604880000000  0.4597160000000 1.0
C      1  0.4931630000000  0.4604850000000  0.5403850000000 1.0
C      1  0.4605000000000  0.4596770000000  0.5069060000000 1.0
C      1  0.4605410000000  0.5403510000000  0.4932780000000 1.0
C      1  0.5394280000000  0.5403290000000  0.5068870000000 1.0
C      1  0.4595770000000  0.5067370000000  0.5394070000000 1.0
C      1  0.4931200000000  0.4605120000000  0.4597030000000 1.0
C      1  0.5394450000000  0.5403010000000  0.4930770000000 1.0
C      1  0.5402210000000  0.5069400000000  0.4604420000000 1.0
C      1  0.5403660000000  0.4931330000000  0.5394770000000 1.0
C      1  0.4597170000000  0.4931330000000  0.4605140000000 1.0
C      1  0.5069720000000  0.4605300000000  0.5403910000000 1.0
C      1  0.5067720000000  0.5394280000000  0.4596760000000 1.0
C      1  0.4930250000000  0.5394520000000  0.5403130000000 1.0
C      1  0.4603290000000  0.5401070000000  0.5070820000000 1.0
C      1  0.4605240000000  0.4596650000000  0.4930970000000 1.0
C      1  0.5394980000000  0.4596670000000  0.5069280000000 1.0
C      1  0.4275440000000  0.5342650000000  0.5148630000000 1.0
C      1  0.5347760000000  0.5149100000000  0.4277200000000 1.0
C      1  0.5149160000000  0.4277900000000  0.5354590000000 1.0
C      1  0.5721740000000  0.5352380000000  0.4848840000000 1.0
C      1  0.5722610000000  0.4645840000000  0.5149790000000 1.0
C      1  0.4278110000000  0.4648450000000  0.4850250000000 1.0
C      1  0.4643780000000  0.5149590000000  0.5720300000000 1.0
C      1  0.4649260000000  0.4853470000000  0.4277980000000 1.0
C      1  0.5354860000000  0.4851680000000  0.5722670000000 1.0
C      1  0.4849710000000  0.4277920000000  0.4646060000000 1.0
C      1  0.4846830000000  0.5720030000000  0.5347590000000 1.0
C      1  0.5150550000000  0.5722160000000  0.4641320000000 1.0
C      1  0.4278800000000  0.4651680000000  0.5150040000000 1.0
C      1  0.5357230000000  0.4848770000000  0.4276760000000 1.0
C      1  0.5146190000000  0.5721870000000  0.5350710000000 1.0
C      1  0.5723000000000  0.4645560000000  0.4849940000000 1.0
C      1  0.5721640000000  0.5354080000000  0.5148330000000 1.0
C      1  0.4278430000000  0.5358700000000  0.4848080000000 1.0
C      1  0.4648960000000  0.4849540000000  0.5724370000000 1.0
C      1  0.4654250000000  0.5152920000000  0.4279410000000 1.0
C      1  0.5353410000000  0.5151480000000  0.5722170000000 1.0
C      1  0.4850170000000  0.5724500000000  0.4656650000000 1.0
C      1  0.4849060000000  0.4277850000000  0.5354780000000 1.0
C      1  0.5149390000000  0.4277160000000  0.4647280000000 1.0
C      1  0.4814050000000  0.5063640000000  0.5868140000000 1.0
C      1  0.5068350000000  0.5875970000000  0.4807980000000 1.0
C      1  0.5870280000000  0.4814830000000  0.5061750000000 1.0
C      1  0.5185420000000  0.5055930000000  0.4126370000000 1.0
C      1  0.5185530000000  0.4939560000000  0.5869780000000 1.0
C      1  0.4822680000000  0.4942770000000  0.4136650000000 1.0
C      1  0.4932330000000  0.5862000000000  0.5171580000000 1.0
C      1  0.4937160000000  0.4130690000000  0.4815790000000 1.0
C      1  0.5060550000000  0.4131090000000  0.5185210000000 1.0
C      1  0.4136220000000  0.4821490000000  0.4939220000000 1.0
C      1  0.4126550000000  0.5180720000000  0.5053010000000 1.0
C      1  0.5868900000000  0.5183270000000  0.4936490000000 1.0
C      1  0.4817500000000  0.4939830000000  0.5870500000000 1.0
C      1  0.5061020000000  0.4130170000000  0.4816450000000 1.0
C      1  0.5868650000000  0.5184380000000  0.5060360000000 1.0
C      1  0.5190980000000  0.4932400000000  0.4124090000000 1.0
C      1  0.5184110000000  0.5063410000000  0.5869500000000 1.0
C      1  0.4829500000000  0.5066670000000  0.4137420000000 1.0
C      1  0.4936680000000  0.4131280000000  0.5184830000000 1.0
C      1  0.4945030000000  0.5875000000000  0.4817610000000 1.0
C      1  0.5056300000000  0.5862730000000  0.5177290000000 1.0
C      1  0.4126160000000  0.5190490000000  0.4929690000000 1.0
C      1  0.4136600000000  0.4826890000000  0.5063160000000 1.0
C      1  0.5870430000000  0.4814780000000  0.4937900000000 1.0
C      1  0.5073940000000  0.5073910000000  0.4626830000000 1.0
C      1  0.5074410000000  0.4625860000000  0.5074390000000 1.0
C      1  0.4626420000000  0.5073060000000  0.5074240000000 1.0
C      1  0.4925860000000  0.5073510000000  0.5374730000000 1.0
C      1  0.4926130000000  0.4925630000000  0.4626800000000 1.0
C      1  0.5074310000000  0.4925660000000  0.5374430000000 1.0
C      1  0.4926130000000  0.4625720000000  0.4926330000000 1.0
C      1  0.4925680000000  0.5372920000000  0.5074600000000 1.0
C      1  0.5073780000000  0.5373940000000  0.4926340000000 1.0
C      1  0.5373700000000  0.5073910000000  0.4925890000000 1.0
C      1  0.5374090000000  0.4925900000000  0.5074170000000 1.0
C      1  0.4626120000000  0.4925500000000  0.4925750000000 1.0
C      1  0.5074200000000  0.4925640000000  0.4626400000000 1.0
C      1  0.5073980000000  0.5373500000000  0.5074450000000 1.0
C      1  0.4626750000000  0.4925300000000  0.5074080000000 1.0
C      1  0.4926340000000  0.4925230000000  0.5374460000000 1.0
C      1  0.4926140000000  0.5073930000000  0.4627350000000 1.0
C      1  0.5073930000000  0.5073930000000  0.5374580000000 1.0
C      1  0.4925530000000  0.5373360000000  0.4926860000000 1.0
C      1  0.4926120000000  0.4625520000000  0.5074380000000 1.0
C      1  0.5074410000000  0.4626010000000  0.4926360000000 1.0
C      1  0.5374090000000  0.4925910000000  0.4925860000000 1.0
C      1  0.5373760000000  0.5073940000000  0.5074160000000 1.0
C      1  0.4625670000000  0.5073620000000  0.4926010000000 1.0
C      1  0.4829490000000  0.5339690000000  0.4829410000000 1.0
C      1  0.5340560000000  0.4828010000000  0.4829980000000 1.0
C      1  0.4828590000000  0.4829310000000  0.5340630000000 1.0
C      1  0.5169750000000  0.5339930000000  0.5172290000000 1.0
C      1  0.5170120000000  0.4659880000000  0.4828420000000 1.0
C      1  0.4830350000000  0.4659150000000  0.5172310000000 1.0
C      1  0.4660500000000  0.4827620000000  0.5170000000000 1.0
C      1  0.4659160000000  0.5171990000000  0.4830650000000 1.0
C      1  0.5339840000000  0.5171800000000  0.5169870000000 1.0
C      1  0.5172260000000  0.4829880000000  0.4659760000000 1.0
C      1  0.5171590000000  0.5169810000000  0.5340440000000 1.0
C      1  0.4828480000000  0.5169790000000  0.4661140000000 1.0
C      1  0.4830380000000  0.4659630000000  0.4828480000000 1.0
C      1  0.5339670000000  0.5171750000000  0.4830230000000 1.0
C      1  0.4827690000000  0.5168930000000  0.5340820000000 1.0
C      1  0.5170140000000  0.4659810000000  0.5172270000000 1.0
C      1  0.5169350000000  0.5340450000000  0.4828140000000 1.0
C      1  0.4829820000000  0.5339020000000  0.5172220000000 1.0
C      1  0.4660210000000  0.5170510000000  0.5170210000000 1.0
C      1  0.4659920000000  0.4827780000000  0.4829920000000 1.0
C      1  0.5340430000000  0.4828070000000  0.5170040000000 1.0
C      1  0.5171440000000  0.5169950000000  0.4660470000000 1.0
C      1  0.5172390000000  0.4830120000000  0.5340500000000 1.0
C      1  0.4828220000000  0.4829870000000  0.4660180000000 1.0
C      1  0.4371080000000  0.5124140000000  0.4496210000000 1.0
C      1  0.5122930000000  0.4498360000000  0.4368920000000 1.0
C      1  0.4497350000000  0.4369550000000  0.5122170000000 1.0
C      1  0.5631650000000  0.5122920000000  0.5500240000000 1.0
C      1  0.5632300000000  0.4879270000000  0.4499540000000 1.0
C      1  0.4370740000000  0.4874430000000  0.5504690000000 1.0
C      1  0.4879480000000  0.4499650000000  0.5632910000000 1.0
C      1  0.4874000000000  0.5507620000000  0.4374470000000 1.0
C      1  0.5120350000000  0.5502220000000  0.5631000000000 1.0
C      1  0.5500550000000  0.4368070000000  0.4878410000000 1.0
C      1  0.5499350000000  0.5632200000000  0.5120790000000 1.0
C      1  0.4502320000000  0.5633170000000  0.4884680000000 1.0
C      1  0.4369260000000  0.4879920000000  0.4497940000000 1.0
C      1  0.5116680000000  0.5497580000000  0.4367380000000 1.0
C      1  0.4491640000000  0.5625430000000  0.5127220000000 1.0
C      1  0.5632330000000  0.4878890000000  0.5500520000000 1.0
C      1  0.5629070000000  0.5123280000000  0.4497120000000 1.0
C      1  0.4366450000000  0.5116950000000  0.5497280000000 1.0
C      1  0.4876400000000  0.5502330000000  0.5630110000000 1.0
C      1  0.4878710000000  0.4500240000000  0.4368100000000 1.0
C      1  0.5123490000000  0.4500010000000  0.5632590000000 1.0
C      1  0.5501200000000  0.5631020000000  0.4876580000000 1.0
C      1  0.5500330000000  0.4368010000000  0.5122480000000 1.0
C      1  0.4498230000000  0.4368880000000  0.4878200000000 1.0
C      1  0.4496910000000  0.5479540000000  0.5145080000000 1.0
C      1  0.5483130000000  0.5143950000000  0.4500030000000 1.0
C      1  0.5144350000000  0.4502550000000  0.5486750000000 1.0
C      1  0.5497620000000  0.5485210000000  0.4856120000000 1.0
C      1  0.5497840000000  0.4513820000000  0.5143740000000 1.0
C      1  0.4501710000000  0.4514510000000  0.4856620000000 1.0
C      1  0.4511550000000  0.5141330000000  0.5495680000000 1.0
C      1  0.4514800000000  0.4857610000000  0.4501320000000 1.0
C      1  0.5486600000000  0.4857310000000  0.5497800000000 1.0
C      1  0.4856780000000  0.4502530000000  0.4513810000000 1.0
C      1  0.4855760000000  0.5498450000000  0.5484400000000 1.0
C      1  0.5141620000000  0.5495720000000  0.4512390000000 1.0
C      1  0.4500820000000  0.4515310000000  0.5143080000000 1.0
C      1  0.5486670000000  0.4856910000000  0.4502780000000 1.0
C      1  0.5142070000000  0.5498670000000  0.5485390000000 1.0
C      1  0.5498040000000  0.4513860000000  0.4856870000000 1.0
C      1  0.5497120000000  0.5486520000000  0.5142890000000 1.0
C      1  0.4504390000000  0.5488300000000  0.4858910000000 1.0
C      1  0.4516480000000  0.4855380000000  0.5500230000000 1.0
C      1  0.4516900000000  0.5144120000000  0.4500690000000 1.0
C      1  0.5485850000000  0.5144080000000  0.5497690000000 1.0
C      1  0.4855390000000  0.5502620000000  0.4520340000000 1.0
C      1  0.4857440000000  0.4502300000000  0.5487190000000 1.0
C      1  0.5143640000000  0.4501600000000  0.4514760000000 1.0
C      1  0.5299890000000  0.4211260000000  0.5185530000000 1.0
C      1  0.4211270000000  0.5165740000000  0.5291420000000 1.0
C      1  0.5170760000000  0.5292340000000  0.4212990000000 1.0
C      1  0.4698500000000  0.4212070000000  0.4815040000000 1.0
C      1  0.4691690000000  0.5783770000000  0.5181870000000 1.0
C      1  0.5303610000000  0.5789160000000  0.4808660000000 1.0
C      1  0.5787100000000  0.5183860000000  0.4697240000000 1.0
C      1  0.5789060000000  0.4815110000000  0.5300430000000 1.0
C      1  0.4213340000000  0.4817890000000  0.4699230000000 1.0
C      1  0.4812530000000  0.5301600000000  0.5786060000000 1.0
C      1  0.4818100000000  0.4702220000000  0.4212400000000 1.0
C      1  0.5186520000000  0.4700310000000  0.5789520000000 1.0
C      1  0.5297030000000  0.5787350000000  0.5181480000000 1.0
C      1  0.4213630000000  0.4818290000000  0.5303760000000 1.0
C      1  0.5189740000000  0.4695920000000  0.4210140000000 1.0
C      1  0.4707750000000  0.5788440000000  0.4834020000000 1.0
C      1  0.4697760000000  0.4212840000000  0.5185470000000 1.0
C      1  0.5300270000000  0.4210860000000  0.4816180000000 1.0
C      1  0.5789340000000  0.4814770000000  0.4699210000000 1.0
C      1  0.5788120000000  0.5185260000000  0.5299410000000 1.0
C      1  0.4212930000000  0.5191420000000  0.4694120000000 1.0
C      1  0.4818210000000  0.4699590000000  0.5791010000000 1.0
C      1  0.4820730000000  0.5307380000000  0.4215880000000 1.0
C      1  0.5183800000000  0.5302060000000  0.5787750000000 1.0
C      1  0.5234250000000  0.5168650000000  0.4193520000000 1.0
C      1  0.5172640000000  0.4192980000000  0.5242600000000 1.0
C      1  0.4192990000000  0.5228280000000  0.5167020000000 1.0
C      1  0.4755620000000  0.5174440000000  0.5805210000000 1.0
C      1  0.4762300000000  0.4830150000000  0.4194390000000 1.0
C      1  0.5243280000000  0.4827690000000  0.5807890000000 1.0
C      1  0.4825620000000  0.4193180000000  0.4758060000000 1.0
C      1  0.4821240000000  0.5801140000000  0.5233270000000 1.0
C      1  0.5177360000000  0.5809810000000  0.4750340000000 1.0
C      1  0.5806090000000  0.5240290000000  0.4824640000000 1.0
C      1  0.5807650000000  0.4757690000000  0.5173490000000 1.0
C      1  0.4194730000000  0.4761570000000  0.4826750000000 1.0
C      1  0.5247680000000  0.4822420000000  0.4189820000000 1.0
C      1  0.5169170000000  0.5805180000000  0.5237400000000 1.0
C      1  0.4196980000000  0.4765770000000  0.5174630000000 1.0
C      1  0.4761130000000  0.4826840000000  0.5808880000000 1.0
C      1  0.4768780000000  0.5178120000000  0.4198480000000 1.0
C      1  0.5241120000000  0.5175160000000  0.5806630000000 1.0
C      1  0.4831560000000  0.5807420000000  0.4770610000000 1.0
C      1  0.4824920000000  0.4193770000000  0.5242350000000 1.0
C      1  0.5173050000000  0.4192400000000  0.4759270000000 1.0
C      1  0.5808070000000  0.4757330000000  0.4826130000000 1.0
C      1  0.5806540000000  0.5242100000000  0.5172120000000 1.0
C      1  0.4191820000000  0.5248970000000  0.4820730000000 1.0
C      1  0.4840770000000  0.5624280000000  0.4584360000000 1.0
C      1  0.5621030000000  0.4575470000000  0.4841500000000 1.0
C      1  0.4578890000000  0.4840560000000  0.5622530000000 1.0
C      1  0.5156460000000  0.5621190000000  0.5422520000000 1.0
C      1  0.5158350000000  0.4378860000000  0.4576890000000 1.0
C      1  0.4841390000000  0.4379470000000  0.5425450000000 1.0
C      1  0.4378820000000  0.4578780000000  0.5158280000000 1.0
C      1  0.4381220000000  0.5427770000000  0.4840760000000 1.0
C      1  0.5620170000000  0.5424830000000  0.5157760000000 1.0
C      1  0.5425630000000  0.4840700000000  0.4379850000000 1.0
C      1  0.5424000000000  0.5159730000000  0.5620540000000 1.0
C      1  0.4580960000000  0.5160030000000  0.4379190000000 1.0
C      1  0.4841170000000  0.4379560000000  0.4575470000000 1.0
C      1  0.5620090000000  0.5422910000000  0.4840660000000 1.0
C      1  0.4572800000000  0.5158080000000  0.5618870000000 1.0
C      1  0.5158780000000  0.4379520000000  0.5425030000000 1.0
C      1  0.5158790000000  0.5619110000000  0.4572760000000 1.0
C      1  0.4839610000000  0.5620150000000  0.5420770000000 1.0
C      1  0.4375340000000  0.5415280000000  0.5158830000000 1.0
C      1  0.4379200000000  0.4577100000000  0.4841160000000 1.0
C      1  0.5620840000000  0.4575520000000  0.5158710000000 1.0
C      1  0.5420050000000  0.5158560000000  0.4377530000000 1.0
C      1  0.5424970000000  0.4842490000000  0.5620780000000 1.0
C      1  0.4577520000000  0.4843150000000  0.4378720000000 1.0
C      1  0.4691410000000  0.5138210000000  0.5306390000000 1.0
C      1  0.5138880000000  0.5306180000000  0.4691770000000 1.0
C      1  0.5306410000000  0.4691600000000  0.5139880000000 1.0
C      1  0.5307820000000  0.5139610000000  0.4693920000000 1.0
C      1  0.5308790000000  0.4860460000000  0.5306330000000 1.0
C      1  0.4691740000000  0.4860280000000  0.4693790000000 1.0
C      1  0.4859810000000  0.5305210000000  0.5308670000000 1.0
C      1  0.4860560000000  0.4693640000000  0.4692020000000 1.0
C      1  0.5140120000000  0.4693830000000  0.5308790000000 1.0
C      1  0.4694040000000  0.4691420000000  0.4860450000000 1.0
C      1  0.4693430000000  0.5307000000000  0.5140300000000 1.0
C      1  0.5305620000000  0.5308230000000  0.4860330000000 1.0
C      1  0.4692140000000  0.4859380000000  0.5306560000000 1.0
C      1  0.5139940000000  0.4693650000000  0.4691870000000 1.0
C      1  0.5305930000000  0.5308280000000  0.5139740000000 1.0
C      1  0.5308730000000  0.4860260000000  0.4693690000000 1.0
C      1  0.5308030000000  0.5139680000000  0.5306220000000 1.0
C      1  0.4691890000000  0.5139830000000  0.4694490000000 1.0
C      1  0.4860780000000  0.4693100000000  0.5308770000000 1.0
C      1  0.4860000000000  0.5306310000000  0.4693110000000 1.0
C      1  0.5139240000000  0.5306010000000  0.5308690000000 1.0
C      1  0.4693290000000  0.5308320000000  0.4861570000000 1.0
C      1  0.4694120000000  0.4691140000000  0.5139880000000 1.0
C      1  0.5306490000000  0.4691630000000  0.4860490000000 1.0
C      1  0.4276430000000  0.5151160000000  0.5395320000000 1.0
C      1  0.5152080000000  0.5395960000000  0.4277320000000 1.0
C      1  0.5401540000000  0.4277030000000  0.5163580000000 1.0
C      1  0.5720310000000  0.5164330000000  0.4595690000000 1.0
C      1  0.5723300000000  0.4837530000000  0.5401960000000 1.0
C      1  0.4278330000000  0.4839480000000  0.4597040000000 1.0
C      1  0.4834820000000  0.5403440000000  0.5720780000000 1.0
C      1  0.4838720000000  0.4599790000000  0.4277350000000 1.0
C      1  0.5164640000000  0.4598770000000  0.5723550000000 1.0
C      1  0.4596920000000  0.4277850000000  0.4837230000000 1.0
C      1  0.4589660000000  0.5715960000000  0.5169540000000 1.0
C      1  0.5403820000000  0.5722280000000  0.4833270000000 1.0
C      1  0.4280470000000  0.4833100000000  0.5406020000000 1.0
C      1  0.5165850000000  0.4595740000000  0.4277410000000 1.0
C      1  0.5399680000000  0.5722760000000  0.5160820000000 1.0
C      1  0.5723680000000  0.4838510000000  0.4597950000000 1.0
C      1  0.5722460000000  0.5163830000000  0.5401250000000 1.0
C      1  0.4279750000000  0.5167380000000  0.4593710000000 1.0
C      1  0.4839210000000  0.4598190000000  0.5724460000000 1.0
C      1  0.4832450000000  0.5409490000000  0.4283730000000 1.0
C      1  0.5161550000000  0.5403660000000  0.5722020000000 1.0
C      1  0.4604020000000  0.5723540000000  0.4850570000000 1.0
C      1  0.4596070000000  0.4278620000000  0.5163660000000 1.0
C      1  0.5401850000000  0.4276960000000  0.4837560000000 1.0
C      1  0.4997060000000  0.5562720000000  0.4347140000000 1.0
C      1  0.5001580000000  0.4441160000000  0.5656460000000 1.0
C      1  0.4436660000000  0.5652970000000  0.5004120000000 1.0
C      1  0.5558940000000  0.4344140000000  0.5000490000000 1.0
C      1  0.4346160000000  0.5001860000000  0.4438660000000 1.0
C      1  0.4344700000000  0.4997080000000  0.5561420000000 1.0
C      1  0.5654250000000  0.5001070000000  0.4439680000000 1.0
C      1  0.5656020000000  0.5001060000000  0.5558890000000 1.0
C      1  0.4998240000000  0.5561030000000  0.5654630000000 1.0
C      1  0.5558500000000  0.5655740000000  0.4998990000000 1.0
C      1  0.5000440000000  0.4441040000000  0.4344520000000 1.0
C      1  0.4439060000000  0.4345230000000  0.5000080000000 1.0
END
