TITL C-3450915-5378-5 -3.80014888963687 1000000 -2007.24282416048 0 0 300 (C1) n - 1
REM
REM in /home/nfs/bkarasulu/CARBON/AIRSS/Generating-Clusters/GAP-ML-2020/Higher-Symm/Selected-Sizes/Larger-Clusters
REM
REM
REM
REM
REM
REM ./C.cell (2cf5181f0f1d4d5b12b972d32ad12063)
REM
REM compiler GCC version 9.2.1 20190827 (Red Hat 9.2.1-1)
REM options -cpp -mtune=generic -march=x86-64 -g -O0 -fpre-include=/usr/include/finclude/math-vector-fortran.h
REM seed 2020657057 6829365 362956408 1304336641 1568525642 -1051632045 -979313989 2116829220 889093324 1369744522 588754265 857376698 -290264800 1929735869 -1131830085 1335051157 -1538322617 -134109711 1776116767 -3315995 1832183035 -1217333068 1329346635 -2071705880 1038585106 -832811246 -1280951741 593329578 -203567994 376662767 -1439618809 1684861282 -480122218
REM
CELL 1.54180  100.00000  100.00000  100.00000   90.00000   90.00000   90.00000
LATT -1
SFAC C  
C      1  0.4961060000000  0.5620500000000  0.4425940000000 1.0
C      1  0.5614440000000  0.4388310000000  0.4902870000000 1.0
C      1  0.4386050000000  0.4966050000000  0.5584510000000 1.0
C      1  0.5026420000000  0.5697900000000  0.5530110000000 1.0
C      1  0.5075950000000  0.4375600000000  0.4403190000000 1.0
C      1  0.4906970000000  0.4384880000000  0.5577490000000 1.0
C      1  0.4416120000000  0.4328050000000  0.5037330000000 1.0
C      1  0.4359070000000  0.5569150000000  0.4896530000000 1.0
C      1  0.5626100000000  0.5565610000000  0.5094050000000 1.0
C      1  0.5564620000000  0.4933860000000  0.4356090000000 1.0
C      1  0.5541880000000  0.5056690000000  0.5638020000000 1.0
C      1  0.4383600000000  0.5044000000000  0.4359860000000 1.0
C      1  0.4947330000000  0.4382910000000  0.4388490000000 1.0
C      1  0.5689610000000  0.5550190000000  0.4982250000000 1.0
C      1  0.4413840000000  0.5070480000000  0.5649600000000 1.0
C      1  0.5036920000000  0.4377680000000  0.5585370000000 1.0
C      1  0.5091630000000  0.5629950000000  0.4434640000000 1.0
C      1  0.4922130000000  0.5621930000000  0.5542580000000 1.0
C      1  0.4394820000000  0.5567860000000  0.5020870000000 1.0
C      1  0.4443690000000  0.4272130000000  0.4922550000000 1.0
C      1  0.5605330000000  0.4394780000000  0.5033260000000 1.0
C      1  0.5546510000000  0.5061000000000  0.4350210000000 1.0
C      1  0.5543650000000  0.4939020000000  0.5693640000000 1.0
C      1  0.4394240000000  0.4917550000000  0.4384200000000 1.0
C      1  0.5047540000000  0.5061580000000  0.5458810000000 1.0
C      1  0.5141440000000  0.5455510000000  0.5062680000000 1.0
C      1  0.5457080000000  0.5060870000000  0.5148420000000 1.0
C      1  0.4935220000000  0.5133280000000  0.4524940000000 1.0
C      1  0.4916660000000  0.4861360000000  0.5470330000000 1.0
C      1  0.5040200000000  0.4924700000000  0.4604680000000 1.0
C      1  0.4933140000000  0.5389130000000  0.4946490000000 1.0
C      1  0.4854180000000  0.4555130000000  0.5066190000000 1.0
C      1  0.5082020000000  0.4627160000000  0.4944050000000 1.0
C      1  0.4611380000000  0.5033820000000  0.4911790000000 1.0
C      1  0.4553940000000  0.4912590000000  0.5125260000000 1.0
C      1  0.5376480000000  0.4947890000000  0.4928570000000 1.0
C      1  0.5041850000000  0.4912540000000  0.5409140000000 1.0
C      1  0.5146770000000  0.4550430000000  0.5060120000000 1.0
C      1  0.5398060000000  0.4941400000000  0.5077490000000 1.0
C      1  0.4926580000000  0.4865210000000  0.4524290000000 1.0
C      1  0.4933360000000  0.5140380000000  0.5415590000000 1.0
C      1  0.5041420000000  0.5074690000000  0.4608090000000 1.0
C      1  0.4930130000000  0.4565440000000  0.4941830000000 1.0
C      1  0.4869120000000  0.5459480000000  0.5065250000000 1.0
C      1  0.5083690000000  0.5390530000000  0.4946540000000 1.0
C      1  0.4502820000000  0.4945220000000  0.4855480000000 1.0
C      1  0.4625030000000  0.5032800000000  0.5059890000000 1.0
C      1  0.5451840000000  0.5055340000000  0.4867430000000 1.0
C      1  0.5432440000000  0.5055680000000  0.5422220000000 1.0
C      1  0.5084490000000  0.5448320000000  0.5442660000000 1.0
C      1  0.5408600000000  0.5444910000000  0.5071620000000 1.0
C      1  0.4558200000000  0.5076010000000  0.4538460000000 1.0
C      1  0.4554690000000  0.4945610000000  0.5418000000000 1.0
C      1  0.5427360000000  0.4921380000000  0.4557940000000 1.0
C      1  0.4928800000000  0.5404750000000  0.4549630000000 1.0
C      1  0.4892260000000  0.4600890000000  0.5442270000000 1.0
C      1  0.5072160000000  0.4587830000000  0.4545190000000 1.0
C      1  0.4576970000000  0.5423450000000  0.4900290000000 1.0
C      1  0.4600700000000  0.4511010000000  0.5037740000000 1.0
C      1  0.5425690000000  0.4564140000000  0.4900790000000 1.0
C      1  0.5433710000000  0.4906430000000  0.5449090000000 1.0
C      1  0.5044570000000  0.4598680000000  0.5442140000000 1.0
C      1  0.5417330000000  0.4558380000000  0.5053910000000 1.0
C      1  0.4547120000000  0.4923420000000  0.4586940000000 1.0
C      1  0.4564730000000  0.5088350000000  0.5451540000000 1.0
C      1  0.5433720000000  0.5074410000000  0.4579720000000 1.0
C      1  0.4918100000000  0.4589070000000  0.4531950000000 1.0
C      1  0.4940260000000  0.5406910000000  0.5444360000000 1.0
C      1  0.5079610000000  0.5400650000000  0.4557800000000 1.0
C      1  0.4600450000000  0.4479130000000  0.4888770000000 1.0
C      1  0.4592220000000  0.5423620000000  0.5050800000000 1.0
C      1  0.5448450000000  0.5436860000000  0.4928590000000 1.0
C      1  0.4334990000000  0.5261610000000  0.4667120000000 1.0
C      1  0.5258020000000  0.4697830000000  0.4318560000000 1.0
C      1  0.4649410000000  0.4383350000000  0.5305920000000 1.0
C      1  0.5618210000000  0.5297900000000  0.5367960000000 1.0
C      1  0.5658630000000  0.4753300000000  0.4678380000000 1.0
C      1  0.4389820000000  0.4702740000000  0.5329730000000 1.0
C      1  0.4646640000000  0.4653520000000  0.5588600000000 1.0
C      1  0.4728130000000  0.5341610000000  0.4330480000000 1.0
C      1  0.5305420000000  0.5461310000000  0.5641290000000 1.0
C      1  0.5278190000000  0.4333720000000  0.4733960000000 1.0
C      1  0.5323520000000  0.5659160000000  0.5283000000000 1.0
C      1  0.4688960000000  0.5652300000000  0.4729030000000 1.0
C      1  0.4373960000000  0.4640370000000  0.4629540000000 1.0
C      1  0.5288650000000  0.5312840000000  0.4357830000000 1.0
C      1  0.4644100000000  0.5620350000000  0.5287200000000 1.0
C      1  0.5669200000000  0.4726840000000  0.5416610000000 1.0
C      1  0.5669590000000  0.5229400000000  0.4621650000000 1.0
C      1  0.4413190000000  0.5367510000000  0.5455920000000 1.0
C      1  0.4752310000000  0.5316750000000  0.5652330000000 1.0
C      1  0.4681400000000  0.4640500000000  0.4404180000000 1.0
C      1  0.5247330000000  0.4689820000000  0.5671420000000 1.0
C      1  0.5489220000000  0.5568860000000  0.4663740000000 1.0
C      1  0.5327180000000  0.4353260000000  0.5279440000000 1.0
C      1  0.4733340000000  0.4314130000000  0.4684510000000 1.0
C      1  0.4586770000000  0.4715780000000  0.4801140000000 1.0
C      1  0.4692130000000  0.4756270000000  0.4716970000000 1.0
C      1  0.4807190000000  0.4677230000000  0.4735420000000 1.0
C      1  0.5464380000000  0.4687690000000  0.5264040000000 1.0
C      1  0.5492560000000  0.5278510000000  0.4741740000000 1.0
C      1  0.4543910000000  0.5288640000000  0.5253150000000 1.0
C      1  0.5348480000000  0.4695550000000  0.5350500000000 1.0
C      1  0.5374630000000  0.5279540000000  0.4662850000000 1.0
C      1  0.4661610000000  0.5279170000000  0.5334870000000 1.0
C      1  0.5256590000000  0.4593790000000  0.5331760000000 1.0
C      1  0.5295990000000  0.5394380000000  0.4675230000000 1.0
C      1  0.4739660000000  0.5391530000000  0.5326020000000 1.0
C      1  0.4610790000000  0.5331230000000  0.4696860000000 1.0
C      1  0.4665820000000  0.5275820000000  0.4586260000000 1.0
C      1  0.4723450000000  0.5384350000000  0.4650710000000 1.0
C      1  0.5390180000000  0.5315030000000  0.5269620000000 1.0
C      1  0.5391930000000  0.4667870000000  0.4700490000000 1.0
C      1  0.4606960000000  0.4662120000000  0.5217170000000 1.0
C      1  0.5297320000000  0.5261740000000  0.5476140000000 1.0
C      1  0.5340460000000  0.4723190000000  0.4591520000000 1.0
C      1  0.4729460000000  0.4836910000000  0.5292240000000 1.0
C      1  0.5286660000000  0.5339870000000  0.5355450000000 1.0
C      1  0.5277010000000  0.4615010000000  0.4646940000000 1.0
C      1  0.4736150000000  0.4700520000000  0.5265440000000 1.0
C      1  0.4365400000000  0.5232300000000  0.5471300000000 1.0
C      1  0.5191840000000  0.5407720000000  0.4373660000000 1.0
C      1  0.5425170000000  0.4364110000000  0.5196750000000 1.0
C      1  0.5626460000000  0.5230660000000  0.4503320000000 1.0
C      1  0.5637050000000  0.4848230000000  0.5482930000000 1.0
C      1  0.4386760000000  0.4742980000000  0.4558340000000 1.0
C      1  0.4809650000000  0.5433320000000  0.5654120000000 1.0
C      1  0.4745770000000  0.4534430000000  0.4374520000000 1.0
C      1  0.5146730000000  0.4596980000000  0.5640570000000 1.0
C      1  0.4672350000000  0.4291640000000  0.4804740000000 1.0
C      1  0.4552810000000  0.5618100000000  0.5197500000000 1.0
C      1  0.5532910000000  0.5589260000000  0.4796400000000 1.0
C      1  0.4357300000000  0.4789580000000  0.5418870000000 1.0
C      1  0.5167980000000  0.4599520000000  0.4352770000000 1.0
C      1  0.5434790000000  0.5630800000000  0.5225980000000 1.0
C      1  0.5627240000000  0.4846750000000  0.4584810000000 1.0
C      1  0.5616620000000  0.5212260000000  0.5462980000000 1.0
C      1  0.4367490000000  0.5165690000000  0.4573490000000 1.0
C      1  0.4720090000000  0.4548430000000  0.5595630000000 1.0
C      1  0.4798450000000  0.5446580000000  0.4352330000000 1.0
C      1  0.5177890000000  0.5524130000000  0.5620700000000 1.0
C      1  0.4595810000000  0.5623310000000  0.4827440000000 1.0
C      1  0.4544650000000  0.4367120000000  0.5234810000000 1.0
C      1  0.5377310000000  0.4364220000000  0.4829890000000 1.0
C      1  0.5245600000000  0.5551100000000  0.5237760000000 1.0
C      1  0.5507490000000  0.5242280000000  0.5297280000000 1.0
C      1  0.5263220000000  0.5333690000000  0.5588700000000 1.0
C      1  0.4781700000000  0.5550470000000  0.4756880000000 1.0
C      1  0.4746540000000  0.4464930000000  0.5248990000000 1.0
C      1  0.5213910000000  0.4460960000000  0.4744920000000 1.0
C      1  0.4432690000000  0.5229520000000  0.4763270000000 1.0
C      1  0.4513730000000  0.4740020000000  0.5284400000000 1.0
C      1  0.5559970000000  0.4784270000000  0.4773800000000 1.0
C      1  0.4760900000000  0.5245350000000  0.4425880000000 1.0
C      1  0.4715850000000  0.4762060000000  0.5537890000000 1.0
C      1  0.5224700000000  0.4790240000000  0.4421170000000 1.0
C      1  0.5287750000000  0.4486100000000  0.5243620000000 1.0
C      1  0.5576590000000  0.4750470000000  0.5315710000000 1.0
C      1  0.5226660000000  0.4767450000000  0.5550840000000 1.0
C      1  0.4787390000000  0.4443670000000  0.4706450000000 1.0
C      1  0.4710240000000  0.5502230000000  0.5243950000000 1.0
C      1  0.5361720000000  0.5513720000000  0.4706860000000 1.0
C      1  0.4433420000000  0.4564050000000  0.4717110000000 1.0
C      1  0.4424650000000  0.5337600000000  0.5311530000000 1.0
C      1  0.5605770000000  0.5169560000000  0.4736790000000 1.0
C      1  0.4731420000000  0.4743970000000  0.4480170000000 1.0
C      1  0.4772570000000  0.5241700000000  0.5539220000000 1.0
C      1  0.5247110000000  0.5221420000000  0.4458730000000 1.0
C      1  0.4893740000000  0.5271060000000  0.4485990000000 1.0
C      1  0.5299440000000  0.4485530000000  0.4865470000000 1.0
C      1  0.4583970000000  0.4874310000000  0.5271650000000 1.0
C      1  0.5129910000000  0.5392000000000  0.5574750000000 1.0
C      1  0.5111000000000  0.4699430000000  0.4449590000000 1.0
C      1  0.4855300000000  0.4730630000000  0.5507430000000 1.0
C      1  0.4738250000000  0.4477650000000  0.5103990000000 1.0
C      1  0.4694140000000  0.5518160000000  0.4872500000000 1.0
C      1  0.5273340000000  0.5501480000000  0.5108450000000 1.0
C      1  0.5520260000000  0.4905280000000  0.4686180000000 1.0
C      1  0.5477350000000  0.5102770000000  0.5289270000000 1.0
C      1  0.4467810000000  0.5106960000000  0.4673370000000 1.0
C      1  0.4872360000000  0.4728010000000  0.4494700000000 1.0
C      1  0.5395840000000  0.5546810000000  0.4843260000000 1.0
C      1  0.4338910000000  0.5218520000000  0.5326160000000 1.0
C      1  0.5100420000000  0.4696250000000  0.5538970000000 1.0
C      1  0.5124240000000  0.5299920000000  0.4457810000000 1.0
C      1  0.4899680000000  0.5263290000000  0.5475590000000 1.0
C      1  0.4724940000000  0.5470260000000  0.5102900000000 1.0
C      1  0.4734350000000  0.4435540000000  0.4843090000000 1.0
C      1  0.5283040000000  0.4532860000000  0.5108000000000 1.0
C      1  0.5503690000000  0.5051470000000  0.4718640000000 1.0
C      1  0.5553710000000  0.4884350000000  0.5363910000000 1.0
C      1  0.4482000000000  0.4971580000000  0.4712870000000 1.0
C      1  0.4310260000000  0.5092400000000  0.4999250000000 1.0
C      1  0.4888670000000  0.4932280000000  0.4149990000000 1.0
C      1  0.4939080000000  0.4307570000000  0.4953050000000 1.0
C      1  0.5713840000000  0.5034940000000  0.5148600000000 1.0
C      1  0.5677790000000  0.5125520000000  0.4863540000000 1.0
C      1  0.4304940000000  0.5155250000000  0.5210820000000 1.0
C      1  0.4992600000000  0.4846080000000  0.5835150000000 1.0
C      1  0.4921150000000  0.5056430000000  0.4182150000000 1.0
C      1  0.5076760000000  0.5064930000000  0.5733990000000 1.0
C      1  0.4974350000000  0.4249810000000  0.5151130000000 1.0
C      1  0.4964770000000  0.5838040000000  0.5068080000000 1.0
C      1  0.5081870000000  0.5788200000000  0.5030230000000 1.0
C      1  0.4300350000000  0.5211220000000  0.5069140000000 1.0
C      1  0.4977750000000  0.5139510000000  0.4264310000000 1.0
C      1  0.4887670000000  0.5729280000000  0.5051230000000 1.0
C      1  0.5778820000000  0.5171900000000  0.4947000000000 1.0
C      1  0.5778190000000  0.5116580000000  0.5066770000000 1.0
C      1  0.4317510000000  0.5025620000000  0.5153370000000 1.0
C      1  0.5049290000000  0.4961310000000  0.5812090000000 1.0
C      1  0.4910240000000  0.4867880000000  0.4269380000000 1.0
C      1  0.4925420000000  0.4831240000000  0.5720250000000 1.0
C      1  0.5153950000000  0.5696020000000  0.4973370000000 1.0
C      1  0.5063590000000  0.4296110000000  0.5050060000000 1.0
C      1  0.4859730000000  0.4264710000000  0.5065360000000 1.0
C      1  0.5168740000000  0.5432530000000  0.5314990000000 1.0
C      1  0.5406060000000  0.5313500000000  0.5133480000000 1.0
C      1  0.5307330000000  0.5121800000000  0.5462710000000 1.0
C      1  0.4855800000000  0.5435500000000  0.4687010000000 1.0
C      1  0.4831370000000  0.4587490000000  0.5298200000000 1.0
C      1  0.5136960000000  0.4576880000000  0.4683820000000 1.0
C      1  0.4557410000000  0.5290920000000  0.4829440000000 1.0
C      1  0.4577940000000  0.4652010000000  0.5078010000000 1.0
C      1  0.5446690000000  0.4700340000000  0.4833190000000 1.0
C      1  0.4688090000000  0.5145840000000  0.4525330000000 1.0
C      1  0.4678570000000  0.4886420000000  0.5483130000000 1.0
C      1  0.5294890000000  0.4853310000000  0.4540050000000 1.0
C      1  0.5117220000000  0.4593880000000  0.5319260000000 1.0
C      1  0.5451540000000  0.4682200000000  0.5125280000000 1.0
C      1  0.5310330000000  0.4817030000000  0.5432310000000 1.0
C      1  0.4844390000000  0.4560690000000  0.4658270000000 1.0
C      1  0.4875940000000  0.5417800000000  0.5317000000000 1.0
C      1  0.5152430000000  0.5395150000000  0.4682430000000 1.0
C      1  0.4539910000000  0.4576210000000  0.4798540000000 1.0
C      1  0.4557730000000  0.5289870000000  0.5114270000000 1.0
C      1  0.5456610000000  0.5306810000000  0.4873080000000 1.0
C      1  0.4683230000000  0.4844350000000  0.4592620000000 1.0
C      1  0.4690190000000  0.5162740000000  0.5427300000000 1.0
C      1  0.5307130000000  0.5158080000000  0.4581300000000 1.0
C      1  0.5423880000000  0.5187440000000  0.4936480000000 1.0
C      1  0.5186160000000  0.4905320000000  0.5414580000000 1.0
C      1  0.4943030000000  0.5421580000000  0.5196110000000 1.0
C      1  0.4616690000000  0.5178630000000  0.5053230000000 1.0
C      1  0.4531240000000  0.4805890000000  0.4892720000000 1.0
C      1  0.5408870000000  0.4797740000000  0.5063240000000 1.0
C      1  0.4801730000000  0.4932880000000  0.4577410000000 1.0
C      1  0.4809830000000  0.5071180000000  0.5392600000000 1.0
C      1  0.5187580000000  0.5075790000000  0.4612940000000 1.0
C      1  0.5081310000000  0.5388580000000  0.4800350000000 1.0
C      1  0.5063230000000  0.4575070000000  0.5190120000000 1.0
C      1  0.4916160000000  0.4644480000000  0.4813730000000 1.0
C      1  0.5385820000000  0.4804180000000  0.4919420000000 1.0
C      1  0.5196820000000  0.5048200000000  0.5435000000000 1.0
C      1  0.4926990000000  0.4578070000000  0.5182940000000 1.0
C      1  0.4551580000000  0.4780740000000  0.5028030000000 1.0
C      1  0.4612140000000  0.5177990000000  0.4907310000000 1.0
C      1  0.5419000000000  0.5189430000000  0.5073240000000 1.0
C      1  0.4803050000000  0.5068520000000  0.4562750000000 1.0
C      1  0.4796700000000  0.4926340000000  0.5399170000000 1.0
C      1  0.5186380000000  0.4929280000000  0.4603520000000 1.0
C      1  0.5067960000000  0.4644340000000  0.4802430000000 1.0
C      1  0.5080790000000  0.5414630000000  0.5192840000000 1.0
C      1  0.4933650000000  0.5390160000000  0.4803220000000 1.0
C      1  0.4500100000000  0.4407090000000  0.5114340000000 1.0
C      1  0.4438500000000  0.5123810000000  0.4457800000000 1.0
C      1  0.5142300000000  0.4491140000000  0.4440690000000 1.0
C      1  0.5500560000000  0.4438660000000  0.4841830000000 1.0
C      1  0.5501680000000  0.5551410000000  0.5143160000000 1.0
C      1  0.4485100000000  0.5535750000000  0.4844580000000 1.0
C      1  0.5540650000000  0.5114240000000  0.5514690000000 1.0
C      1  0.5540780000000  0.4865660000000  0.4474240000000 1.0
C      1  0.4419790000000  0.4896560000000  0.5471260000000 1.0
C      1  0.4830310000000  0.4493560000000  0.5541410000000 1.0
C      1  0.4881360000000  0.5507970000000  0.4439220000000 1.0
C      1  0.5115790000000  0.5591270000000  0.5511980000000 1.0
C      1  0.4497100000000  0.5534840000000  0.5104440000000 1.0
C      1  0.4438910000000  0.4853840000000  0.4500070000000 1.0
C      1  0.5151900000000  0.5510380000000  0.4460920000000 1.0
C      1  0.5599210000000  0.5509940000000  0.4888210000000 1.0
C      1  0.5500960000000  0.4438940000000  0.5110390000000 1.0
C      1  0.4552950000000  0.4328960000000  0.4865190000000 1.0
C      1  0.5528580000000  0.4871800000000  0.5572090000000 1.0
C      1  0.5524270000000  0.5143010000000  0.4464220000000 1.0
C      1  0.4458280000000  0.5143230000000  0.5532790000000 1.0
C      1  0.4877680000000  0.5493720000000  0.5553130000000 1.0
C      1  0.4863270000000  0.4488530000000  0.4424850000000 1.0
C      1  0.5106450000000  0.4490310000000  0.5556710000000 1.0
C      1  0.4406550000000  0.4935140000000  0.5093890000000 1.0
C      1  0.4972250000000  0.5071310000000  0.4390620000000 1.0
C      1  0.5108790000000  0.4414960000000  0.4995480000000 1.0
C      1  0.5587900000000  0.5042240000000  0.4936000000000 1.0
C      1  0.5588790000000  0.5024950000000  0.5080440000000 1.0
C      1  0.4386550000000  0.4980740000000  0.4954980000000 1.0
C      1  0.5019480000000  0.5032740000000  0.5610100000000 1.0
C      1  0.4951010000000  0.4926600000000  0.4388180000000 1.0
C      1  0.4939600000000  0.4913010000000  0.5606850000000 1.0
C      1  0.4990950000000  0.4430950000000  0.4904690000000 1.0
C      1  0.4930550000000  0.5598060000000  0.5035190000000 1.0
C      1  0.5073560000000  0.5581880000000  0.5012040000000 1.0
END
