TITL C-3450910-1652-4 -61.3210304278959 1000000 -4123.95002248029 0 0 580 (C1) n - 1
REM
REM in /home/nfs/bkarasulu/CARBON/AIRSS/Generating-Clusters/GAP-ML-2020/Higher-Symm/Selected-Sizes/Larger-Clusters
REM
REM
REM
REM
REM
REM ./C.cell (2cf5181f0f1d4d5b12b972d32ad12063)
REM
REM compiler GCC version 9.2.1 20190827 (Red Hat 9.2.1-1)
REM options -cpp -mtune=generic -march=x86-64 -g -O0 -fpre-include=/usr/include/finclude/math-vector-fortran.h
REM seed 767715580 1075763546 275779001 -923473809 -258043767 630694098 17072979 -990507462 -186000780 -1855324609 -1923314278 1183386558 877231650 -704876525 1841355515 1924424938 -372894391 -2092647151 1521106461 -1259908901 601427816 -1644625245 63315420 1367354982 93590798 20649310 -320170420 367300070 281823590 1834902985 -1220933771 830106309 1524139813
REM
CELL 1.54180  100.00000  100.00000  100.00000   90.00000   90.00000   90.00000
LATT -1
SFAC C  
C      1  0.5299610000000  0.5521520000000  0.5418850000000 1.0
C      1  0.5376540000000  0.5312630000000  0.5499050000000 1.0
C      1  0.5503410000000  0.5406040000000  0.5321840000000 1.0
C      1  0.4705330000000  0.5491960000000  0.4633170000000 1.0
C      1  0.5343870000000  0.4462060000000  0.4533030000000 1.0
C      1  0.4634210000000  0.4450160000000  0.5451690000000 1.0
C      1  0.4614780000000  0.5326750000000  0.4491050000000 1.0
C      1  0.5432120000000  0.4653000000000  0.4466500000000 1.0
C      1  0.4554740000000  0.4635860000000  0.5544170000000 1.0
C      1  0.4514120000000  0.5380700000000  0.4702910000000 1.0
C      1  0.5532430000000  0.4548090000000  0.4631510000000 1.0
C      1  0.4454790000000  0.4544840000000  0.5366850000000 1.0
C      1  0.5397900000000  0.5522080000000  0.5310720000000 1.0
C      1  0.5508840000000  0.5348720000000  0.5456750000000 1.0
C      1  0.5353800000000  0.5444770000000  0.5533060000000 1.0
C      1  0.4570400000000  0.5510290000000  0.4687600000000 1.0
C      1  0.4578060000000  0.4469610000000  0.5322500000000 1.0
C      1  0.5408760000000  0.4469600000000  0.4668380000000 1.0
C      1  0.4489890000000  0.5365180000000  0.4567790000000 1.0
C      1  0.4475740000000  0.4672600000000  0.5420620000000 1.0
C      1  0.5514230000000  0.4680770000000  0.4589300000000 1.0
C      1  0.4685660000000  0.5458800000000  0.4491490000000 1.0
C      1  0.4678230000000  0.4571540000000  0.5527170000000 1.0
C      1  0.5310890000000  0.4594330000000  0.4495490000000 1.0
C      1  0.4476130000000  0.4992840000000  0.5366690000000 1.0
C      1  0.5346050000000  0.4470000000000  0.5018540000000 1.0
C      1  0.5036400000000  0.5321550000000  0.4493750000000 1.0
C      1  0.5516970000000  0.5000560000000  0.4641710000000 1.0
C      1  0.4508170000000  0.5031790000000  0.4679810000000 1.0
C      1  0.5517020000000  0.5005720000000  0.5319720000000 1.0
C      1  0.4652240000000  0.4473510000000  0.4985880000000 1.0
C      1  0.5341220000000  0.5524070000000  0.4991660000000 1.0
C      1  0.4664380000000  0.5532280000000  0.4997430000000 1.0
C      1  0.5022140000000  0.5330440000000  0.5485170000000 1.0
C      1  0.4998940000000  0.4639870000000  0.5544980000000 1.0
C      1  0.5008840000000  0.4645480000000  0.4464590000000 1.0
C      1  0.5331980000000  0.5013480000000  0.4463380000000 1.0
C      1  0.5003300000000  0.4467450000000  0.5366330000000 1.0
C      1  0.4484560000000  0.5363040000000  0.4989870000000 1.0
C      1  0.4668910000000  0.4987600000000  0.5535680000000 1.0
C      1  0.4665600000000  0.4990160000000  0.4480240000000 1.0
C      1  0.5346460000000  0.5007890000000  0.5515250000000 1.0
C      1  0.4994910000000  0.4460120000000  0.4640630000000 1.0
C      1  0.4956610000000  0.5530750000000  0.5335520000000 1.0
C      1  0.5024660000000  0.5512860000000  0.4692630000000 1.0
C      1  0.5521470000000  0.5351600000000  0.4983880000000 1.0
C      1  0.5490590000000  0.4668120000000  0.4957120000000 1.0
C      1  0.4502260000000  0.4667420000000  0.5047400000000 1.0
C      1  0.5795760000000  0.4670400000000  0.4758470000000 1.0
C      1  0.4784080000000  0.5802800000000  0.4651990000000 1.0
C      1  0.4667110000000  0.4751730000000  0.5812050000000 1.0
C      1  0.4196620000000  0.4670660000000  0.5243140000000 1.0
C      1  0.5783820000000  0.5351400000000  0.5219490000000 1.0
C      1  0.4211330000000  0.5354330000000  0.4764320000000 1.0
C      1  0.5217030000000  0.5802110000000  0.5341860000000 1.0
C      1  0.4759370000000  0.4202460000000  0.5337160000000 1.0
C      1  0.5240210000000  0.4227490000000  0.4666520000000 1.0
C      1  0.5354320000000  0.4757360000000  0.4185300000000 1.0
C      1  0.4679180000000  0.5232640000000  0.4209240000000 1.0
C      1  0.5344600000000  0.5236630000000  0.5793950000000 1.0
C      1  0.4772730000000  0.4647230000000  0.5810210000000 1.0
C      1  0.4674640000000  0.5804510000000  0.4748760000000 1.0
C      1  0.5795010000000  0.4774740000000  0.4655000000000 1.0
C      1  0.5247540000000  0.4651250000000  0.4187900000000 1.0
C      1  0.5236260000000  0.5338750000000  0.5794360000000 1.0
C      1  0.4782020000000  0.5340590000000  0.4204600000000 1.0
C      1  0.5327360000000  0.5804750000000  0.5241140000000 1.0
C      1  0.5351690000000  0.4201220000000  0.4771660000000 1.0
C      1  0.4651810000000  0.4200400000000  0.5227670000000 1.0
C      1  0.4200320000000  0.4775580000000  0.5349740000000 1.0
C      1  0.4214330000000  0.5248870000000  0.4663180000000 1.0
C      1  0.5787850000000  0.5249750000000  0.5325160000000 1.0
C      1  0.5195660000000  0.4893340000000  0.4713350000000 1.0
C      1  0.4722230000000  0.5137560000000  0.4925990000000 1.0
C      1  0.4909470000000  0.4704050000000  0.5232500000000 1.0
C      1  0.4776410000000  0.4902470000000  0.5294750000000 1.0
C      1  0.5141100000000  0.5080950000000  0.5281850000000 1.0
C      1  0.4844560000000  0.5034450000000  0.4735840000000 1.0
C      1  0.5273790000000  0.5145290000000  0.5080500000000 1.0
C      1  0.4720100000000  0.4778070000000  0.5087630000000 1.0
C      1  0.5268730000000  0.4775150000000  0.4922320000000 1.0
C      1  0.5076780000000  0.4693850000000  0.4783620000000 1.0
C      1  0.4943500000000  0.5236310000000  0.4861890000000 1.0
C      1  0.5083270000000  0.5272160000000  0.5148800000000 1.0
C      1  0.4711480000000  0.4900010000000  0.5166070000000 1.0
C      1  0.4927440000000  0.5157510000000  0.4735410000000 1.0
C      1  0.5148580000000  0.4697330000000  0.4910860000000 1.0
C      1  0.5269590000000  0.4895480000000  0.4841060000000 1.0
C      1  0.5268400000000  0.5079280000000  0.5211300000000 1.0
C      1  0.4724030000000  0.5052100000000  0.4808090000000 1.0
C      1  0.5062900000000  0.5202950000000  0.5272420000000 1.0
C      1  0.5060190000000  0.4817510000000  0.4716010000000 1.0
C      1  0.4904060000000  0.4829920000000  0.5300860000000 1.0
C      1  0.4842850000000  0.4704800000000  0.5102370000000 1.0
C      1  0.4807120000000  0.5260870000000  0.4926270000000 1.0
C      1  0.5186830000000  0.5247560000000  0.5055140000000 1.0
C      1  0.5623360000000  0.5028580000000  0.4268810000000 1.0
C      1  0.4276950000000  0.5648190000000  0.5003100000000 1.0
C      1  0.5041750000000  0.4269370000000  0.5624050000000 1.0
C      1  0.4397040000000  0.5028400000000  0.5735890000000 1.0
C      1  0.5621340000000  0.4972160000000  0.5699950000000 1.0
C      1  0.4393210000000  0.4966700000000  0.4292040000000 1.0
C      1  0.5713630000000  0.5629820000000  0.4951240000000 1.0
C      1  0.4283780000000  0.4403990000000  0.4955730000000 1.0
C      1  0.5713930000000  0.4403050000000  0.5041680000000 1.0
C      1  0.4962530000000  0.4279680000000  0.4376940000000 1.0
C      1  0.5042340000000  0.5705280000000  0.4392030000000 1.0
C      1  0.4941780000000  0.5713290000000  0.5616250000000 1.0
C      1  0.4286340000000  0.5032440000000  0.5644080000000 1.0
C      1  0.5038590000000  0.5604060000000  0.4290950000000 1.0
C      1  0.5624200000000  0.4291700000000  0.5045150000000 1.0
C      1  0.5727390000000  0.5030160000000  0.4367860000000 1.0
C      1  0.5713770000000  0.4976230000000  0.5590210000000 1.0
C      1  0.4298450000000  0.4969230000000  0.4398640000000 1.0
C      1  0.4947180000000  0.5601600000000  0.5705390000000 1.0
C      1  0.4962780000000  0.4380550000000  0.4275220000000 1.0
C      1  0.5045830000000  0.4366380000000  0.5729990000000 1.0
C      1  0.4374660000000  0.4293030000000  0.4952100000000 1.0
C      1  0.4385070000000  0.5743330000000  0.5000100000000 1.0
C      1  0.5611330000000  0.5728640000000  0.4956580000000 1.0
C      1  0.4717190000000  0.5563590000000  0.5326270000000 1.0
C      1  0.5362010000000  0.4741580000000  0.5536710000000 1.0
C      1  0.5502990000000  0.5372990000000  0.4710600000000 1.0
C      1  0.5333630000000  0.5520190000000  0.4544610000000 1.0
C      1  0.4768680000000  0.4448600000000  0.4659560000000 1.0
C      1  0.5233790000000  0.4444020000000  0.5342540000000 1.0
C      1  0.4657720000000  0.4748690000000  0.4473660000000 1.0
C      1  0.5426780000000  0.5305920000000  0.4441600000000 1.0
C      1  0.4676530000000  0.5216600000000  0.5547340000000 1.0
C      1  0.4490240000000  0.5450140000000  0.5236090000000 1.0
C      1  0.5533490000000  0.4681200000000  0.5211620000000 1.0
C      1  0.4466910000000  0.4684960000000  0.4789580000000 1.0
C      1  0.5345930000000  0.5539790000000  0.4781210000000 1.0
C      1  0.5523010000000  0.4763800000000  0.5334170000000 1.0
C      1  0.4770140000000  0.5319220000000  0.5532350000000 1.0
C      1  0.4587760000000  0.5577800000000  0.5263000000000 1.0
C      1  0.4664990000000  0.4451930000000  0.4752930000000 1.0
C      1  0.5337520000000  0.4447540000000  0.5249840000000 1.0
C      1  0.4483680000000  0.4772450000000  0.4667720000000 1.0
C      1  0.4459730000000  0.5240540000000  0.5388460000000 1.0
C      1  0.5506220000000  0.5259130000000  0.4587500000000 1.0
C      1  0.5337010000000  0.5422470000000  0.4430800000000 1.0
C      1  0.5247730000000  0.4645580000000  0.5561900000000 1.0
C      1  0.4780490000000  0.4668930000000  0.4450760000000 1.0
C      1  0.4833130000000  0.4332570000000  0.4429980000000 1.0
C      1  0.4444420000000  0.4832980000000  0.4342420000000 1.0
C      1  0.4341010000000  0.4458660000000  0.4832130000000 1.0
C      1  0.5171420000000  0.4321660000000  0.5570590000000 1.0
C      1  0.4809870000000  0.5660390000000  0.5558620000000 1.0
C      1  0.5180920000000  0.5671220000000  0.4422300000000 1.0
C      1  0.5573380000000  0.4839950000000  0.5654240000000 1.0
C      1  0.4449630000000  0.5158300000000  0.5684470000000 1.0
C      1  0.5583780000000  0.5163560000000  0.4307770000000 1.0
C      1  0.5658550000000  0.4455800000000  0.5166720000000 1.0
C      1  0.4314430000000  0.5614050000000  0.5141990000000 1.0
C      1  0.5657720000000  0.5577590000000  0.4816260000000 1.0
C      1  0.4433710000000  0.4347860000000  0.4822150000000 1.0
C      1  0.4346850000000  0.4840020000000  0.4449730000000 1.0
C      1  0.4835920000000  0.4437900000000  0.4329710000000 1.0
C      1  0.5566560000000  0.4344390000000  0.5176660000000 1.0
C      1  0.5559030000000  0.5681430000000  0.4828080000000 1.0
C      1  0.4416170000000  0.5713890000000  0.5140180000000 1.0
C      1  0.5666970000000  0.4845390000000  0.5542960000000 1.0
C      1  0.5679820000000  0.5166230000000  0.4411970000000 1.0
C      1  0.4335060000000  0.5165550000000  0.5596580000000 1.0
C      1  0.5176690000000  0.4420390000000  0.5677350000000 1.0
C      1  0.5179750000000  0.5573870000000  0.4317710000000 1.0
C      1  0.4821050000000  0.5548660000000  0.5652080000000 1.0
C      1  0.5038310000000  0.4423380000000  0.4516160000000 1.0
C      1  0.4536770000000  0.5022500000000  0.4447900000000 1.0
C      1  0.4435600000000  0.4543250000000  0.5045370000000 1.0
C      1  0.4968830000000  0.4421110000000  0.5490280000000 1.0
C      1  0.4992840000000  0.5560380000000  0.5465840000000 1.0
C      1  0.4982760000000  0.5543360000000  0.4561960000000 1.0
C      1  0.5471300000000  0.5052860000000  0.5545990000000 1.0
C      1  0.4544420000000  0.4951170000000  0.5582290000000 1.0
C      1  0.5459050000000  0.4970530000000  0.4424160000000 1.0
C      1  0.5559180000000  0.4544460000000  0.4956460000000 1.0
C      1  0.4441810000000  0.5487940000000  0.4951750000000 1.0
C      1  0.5563740000000  0.5478780000000  0.5016600000000 1.0
C      1  0.4521290000000  0.4440610000000  0.5013820000000 1.0
C      1  0.4448350000000  0.5041710000000  0.4550480000000 1.0
C      1  0.5046530000000  0.4520810000000  0.4422820000000 1.0
C      1  0.5476180000000  0.4439630000000  0.4986290000000 1.0
C      1  0.5466350000000  0.5571600000000  0.5025240000000 1.0
C      1  0.4541100000000  0.5580280000000  0.4958000000000 1.0
C      1  0.5558890000000  0.5058580000000  0.5440770000000 1.0
C      1  0.5558570000000  0.4973890000000  0.4515500000000 1.0
C      1  0.4439530000000  0.4966560000000  0.5494710000000 1.0
C      1  0.4971750000000  0.4513890000000  0.5589880000000 1.0
C      1  0.4990040000000  0.5448520000000  0.4464840000000 1.0
C      1  0.5026760000000  0.5456240000000  0.5548640000000 1.0
C      1  0.4427390000000  0.4793120000000  0.5034590000000 1.0
C      1  0.5094930000000  0.4454280000000  0.4737320000000 1.0
C      1  0.4760940000000  0.5096120000000  0.4465630000000 1.0
C      1  0.5563090000000  0.4795220000000  0.4970310000000 1.0
C      1  0.4490010000000  0.5249420000000  0.4902260000000 1.0
C      1  0.5501410000000  0.5259780000000  0.5095420000000 1.0
C      1  0.4908020000000  0.4458390000000  0.5264480000000 1.0
C      1  0.5073690000000  0.5520570000000  0.5256920000000 1.0
C      1  0.4992590000000  0.5580080000000  0.4812270000000 1.0
C      1  0.5241820000000  0.5104380000000  0.5512010000000 1.0
C      1  0.4795400000000  0.4972560000000  0.5591240000000 1.0
C      1  0.5212930000000  0.4985660000000  0.4399050000000 1.0
C      1  0.5113290000000  0.4740990000000  0.4458950000000 1.0
C      1  0.4737810000000  0.4471040000000  0.5096920000000 1.0
C      1  0.4427600000000  0.5020240000000  0.4805210000000 1.0
C      1  0.4889090000000  0.4729920000000  0.5528400000000 1.0
C      1  0.5003870000000  0.5207700000000  0.4420670000000 1.0
C      1  0.5010660000000  0.5207010000000  0.5567500000000 1.0
C      1  0.5259840000000  0.4466650000000  0.4908440000000 1.0
C      1  0.5238120000000  0.5538610000000  0.5082880000000 1.0
C      1  0.4785080000000  0.5597010000000  0.4985230000000 1.0
C      1  0.5572080000000  0.5017840000000  0.5192120000000 1.0
C      1  0.5509740000000  0.4896240000000  0.4740900000000 1.0
C      1  0.4479630000000  0.4891350000000  0.5266180000000 1.0
C      1  0.4996340000000  0.4029530000000  0.5101400000000 1.0
C      1  0.5118290000000  0.5005530000000  0.4015310000000 1.0
C      1  0.4048030000000  0.5123680000000  0.5007660000000 1.0
C      1  0.5002610000000  0.4031770000000  0.4897420000000 1.0
C      1  0.5007010000000  0.5980010000000  0.4890390000000 1.0
C      1  0.4998230000000  0.5978010000000  0.5099630000000 1.0
C      1  0.4907050000000  0.4996270000000  0.5988340000000 1.0
C      1  0.5111720000000  0.5001180000000  0.5962730000000 1.0
C      1  0.4913060000000  0.5005630000000  0.4033440000000 1.0
C      1  0.5954640000000  0.5119460000000  0.4986990000000 1.0
C      1  0.4028730000000  0.4917900000000  0.5010460000000 1.0
C      1  0.5972940000000  0.4912800000000  0.4984660000000 1.0
C      1  0.5103030000000  0.4030120000000  0.5000270000000 1.0
C      1  0.4044610000000  0.5019350000000  0.5112460000000 1.0
C      1  0.5013660000000  0.5109060000000  0.4022050000000 1.0
C      1  0.4896130000000  0.4032660000000  0.4998210000000 1.0
C      1  0.4900690000000  0.5986120000000  0.4989540000000 1.0
C      1  0.5103510000000  0.5980210000000  0.5001770000000 1.0
C      1  0.5956550000000  0.5014350000000  0.4883180000000 1.0
C      1  0.5972600000000  0.5018120000000  0.5088570000000 1.0
C      1  0.4031110000000  0.5021720000000  0.4905560000000 1.0
C      1  0.5010220000000  0.5102330000000  0.5980710000000 1.0
C      1  0.5017790000000  0.4901630000000  0.4029570000000 1.0
C      1  0.5008470000000  0.4895100000000  0.5969180000000 1.0
C      1  0.4613480000000  0.5002540000000  0.4220700000000 1.0
C      1  0.4211330000000  0.4616530000000  0.5010380000000 1.0
C      1  0.5007220000000  0.4200740000000  0.4589620000000 1.0
C      1  0.5403680000000  0.5005680000000  0.5769440000000 1.0
C      1  0.4610220000000  0.4984920000000  0.5805390000000 1.0
C      1  0.5412320000000  0.4999090000000  0.4200480000000 1.0
C      1  0.5782920000000  0.4616460000000  0.4988450000000 1.0
C      1  0.4226180000000  0.5419650000000  0.4994390000000 1.0
C      1  0.5771130000000  0.5411780000000  0.4985090000000 1.0
C      1  0.4992020000000  0.4201130000000  0.5406540000000 1.0
C      1  0.4982210000000  0.5789670000000  0.5396920000000 1.0
C      1  0.5020930000000  0.5768560000000  0.4606180000000 1.0
C      1  0.4224290000000  0.5016090000000  0.4611590000000 1.0
C      1  0.5013650000000  0.4594000000000  0.4201800000000 1.0
C      1  0.4593840000000  0.4212920000000  0.4992560000000 1.0
C      1  0.5782360000000  0.5017940000000  0.5380540000000 1.0
C      1  0.5775450000000  0.5004920000000  0.4588850000000 1.0
C      1  0.4215920000000  0.5005860000000  0.5417780000000 1.0
C      1  0.5006570000000  0.4585900000000  0.5806580000000 1.0
C      1  0.5017850000000  0.5397260000000  0.4226020000000 1.0
C      1  0.5001630000000  0.5390200000000  0.5778280000000 1.0
C      1  0.5406040000000  0.4210660000000  0.5005760000000 1.0
C      1  0.5395430000000  0.5793340000000  0.5012260000000 1.0
C      1  0.4601250000000  0.5807020000000  0.4979140000000 1.0
C      1  0.5721770000000  0.5483760000000  0.5203660000000 1.0
C      1  0.5190240000000  0.5739660000000  0.5476350000000 1.0
C      1  0.5487660000000  0.5219060000000  0.5742950000000 1.0
C      1  0.4261760000000  0.5496000000000  0.4775690000000 1.0
C      1  0.5733680000000  0.4536490000000  0.4780880000000 1.0
C      1  0.4256650000000  0.4535520000000  0.5218370000000 1.0
C      1  0.4805740000000  0.5741300000000  0.4519390000000 1.0
C      1  0.5222350000000  0.4260480000000  0.4518500000000 1.0
C      1  0.4779660000000  0.4253700000000  0.5478820000000 1.0
C      1  0.4543890000000  0.5212740000000  0.4272640000000 1.0
C      1  0.5478610000000  0.4779140000000  0.4257990000000 1.0
C      1  0.4533220000000  0.4772990000000  0.5750600000000 1.0
C      1  0.5209340000000  0.5470230000000  0.5730810000000 1.0
C      1  0.5464770000000  0.5740270000000  0.5218730000000 1.0
C      1  0.5728120000000  0.5231120000000  0.5457790000000 1.0
C      1  0.4803610000000  0.5462570000000  0.4279640000000 1.0
C      1  0.4793100000000  0.4509670000000  0.5752530000000 1.0
C      1  0.5224780000000  0.4503520000000  0.4236210000000 1.0
C      1  0.4544120000000  0.5739860000000  0.4763720000000 1.0
C      1  0.4515420000000  0.4260940000000  0.5201000000000 1.0
C      1  0.5481610000000  0.4264660000000  0.4797330000000 1.0
C      1  0.4283290000000  0.5225900000000  0.4533820000000 1.0
C      1  0.4258550000000  0.4792350000000  0.5488580000000 1.0
C      1  0.5738620000000  0.4790960000000  0.4518670000000 1.0
C      1  0.5456260000000  0.5222360000000  0.4318010000000 1.0
C      1  0.4335380000000  0.5486230000000  0.5195320000000 1.0
C      1  0.5205440000000  0.4322680000000  0.5431880000000 1.0
C      1  0.4588570000000  0.5192740000000  0.5672460000000 1.0
C      1  0.5441940000000  0.4790050000000  0.5665490000000 1.0
C      1  0.4580290000000  0.4792300000000  0.4336260000000 1.0
C      1  0.5649540000000  0.5444460000000  0.4766110000000 1.0
C      1  0.4346770000000  0.4600650000000  0.4808700000000 1.0
C      1  0.5653150000000  0.4597310000000  0.5190520000000 1.0
C      1  0.4795380000000  0.4326180000000  0.4567240000000 1.0
C      1  0.5243610000000  0.5657460000000  0.4547620000000 1.0
C      1  0.4766790000000  0.5677350000000  0.5422490000000 1.0
C      1  0.4333520000000  0.5206480000000  0.5462820000000 1.0
C      1  0.5243200000000  0.5447750000000  0.4316150000000 1.0
C      1  0.5430740000000  0.4330350000000  0.5217380000000 1.0
C      1  0.5655830000000  0.5214430000000  0.4541780000000 1.0
C      1  0.5663830000000  0.4804980000000  0.5407260000000 1.0
C      1  0.4347210000000  0.4809170000000  0.4589200000000 1.0
C      1  0.4796030000000  0.5407710000000  0.5652490000000 1.0
C      1  0.4804480000000  0.4578690000000  0.4330560000000 1.0
C      1  0.5216830000000  0.4559070000000  0.5680610000000 1.0
C      1  0.4570050000000  0.4334810000000  0.4782480000000 1.0
C      1  0.4545710000000  0.5703830000000  0.5197300000000 1.0
C      1  0.5419770000000  0.5672450000000  0.4804940000000 1.0
C      1  0.5223830000000  0.4678150000000  0.4575340000000 1.0
C      1  0.4618870000000  0.5141420000000  0.4699220000000 1.0
C      1  0.4677680000000  0.4553900000000  0.5223180000000 1.0
C      1  0.4768090000000  0.4668360000000  0.5437900000000 1.0
C      1  0.5141280000000  0.5309080000000  0.5382930000000 1.0
C      1  0.4818880000000  0.5266930000000  0.4648180000000 1.0
C      1  0.5343190000000  0.5200530000000  0.5291310000000 1.0
C      1  0.4558380000000  0.4758790000000  0.5309690000000 1.0
C      1  0.5430940000000  0.4763630000000  0.4699690000000 1.0
C      1  0.5315820000000  0.4553390000000  0.4781160000000 1.0
C      1  0.4720080000000  0.5328550000000  0.4815670000000 1.0
C      1  0.5301710000000  0.5444580000000  0.5213300000000 1.0
C      1  0.4604270000000  0.4681650000000  0.5170910000000 1.0
C      1  0.4703350000000  0.5206440000000  0.4573630000000 1.0
C      1  0.5182430000000  0.4592800000000  0.4708730000000 1.0
C      1  0.5388140000000  0.4681630000000  0.4835200000000 1.0
C      1  0.5414600000000  0.5312990000000  0.5222230000000 1.0
C      1  0.4580090000000  0.5273690000000  0.4777150000000 1.0
C      1  0.5277210000000  0.5233940000000  0.5424620000000 1.0
C      1  0.5294410000000  0.4795680000000  0.4637050000000 1.0
C      1  0.4689640000000  0.4789000000000  0.5378110000000 1.0
C      1  0.4809550000000  0.4591040000000  0.5302230000000 1.0
C      1  0.4783790000000  0.5392240000000  0.4706670000000 1.0
C      1  0.5194430000000  0.5442690000000  0.5322190000000 1.0
C      1  0.5107110000000  0.4984890000000  0.4501360000000 1.0
C      1  0.4578690000000  0.5144000000000  0.4973070000000 1.0
C      1  0.4965840000000  0.4517100000000  0.5139740000000 1.0
C      1  0.4896880000000  0.4983960000000  0.5482670000000 1.0
C      1  0.5133950000000  0.5038100000000  0.5421770000000 1.0
C      1  0.4877620000000  0.5030580000000  0.4521680000000 1.0
C      1  0.5413530000000  0.5145550000000  0.5035820000000 1.0
C      1  0.4527250000000  0.4899700000000  0.5020300000000 1.0
C      1  0.5458300000000  0.4900260000000  0.4986190000000 1.0
C      1  0.5034790000000  0.4499850000000  0.4867050000000 1.0
C      1  0.5003340000000  0.5496770000000  0.4932310000000 1.0
C      1  0.5038830000000  0.5410760000000  0.5144040000000 1.0
C      1  0.4575940000000  0.4953330000000  0.5158300000000 1.0
C      1  0.5005200000000  0.5091230000000  0.4510590000000 1.0
C      1  0.5140900000000  0.4557130000000  0.4955170000000 1.0
C      1  0.5406210000000  0.4952930000000  0.4845890000000 1.0
C      1  0.5463880000000  0.5007810000000  0.5090570000000 1.0
C      1  0.4524980000000  0.5006180000000  0.4916380000000 1.0
C      1  0.4997700000000  0.5094150000000  0.5471780000000 1.0
C      1  0.5046460000000  0.4857160000000  0.4514680000000 1.0
C      1  0.4949900000000  0.4842470000000  0.5438400000000 1.0
C      1  0.4855690000000  0.4567330000000  0.5054010000000 1.0
C      1  0.4895070000000  0.5520240000000  0.5026860000000 1.0
C      1  0.5118580000000  0.5462450000000  0.5025720000000 1.0
C      1  0.5073210000000  0.5384370000000  0.4721510000000 1.0
C      1  0.4676920000000  0.5103030000000  0.5439070000000 1.0
C      1  0.5411650000000  0.4681020000000  0.5110470000000 1.0
C      1  0.4838200000000  0.5451200000000  0.5294140000000 1.0
C      1  0.5119080000000  0.4556780000000  0.5341440000000 1.0
C      1  0.4884930000000  0.4557060000000  0.4667590000000 1.0
C      1  0.5308060000000  0.5079340000000  0.4586030000000 1.0
C      1  0.4696110000000  0.4887140000000  0.4580840000000 1.0
C      1  0.5322390000000  0.4883230000000  0.5441870000000 1.0
C      1  0.4584120000000  0.4681390000000  0.4894890000000 1.0
C      1  0.5438350000000  0.5327090000000  0.4862480000000 1.0
C      1  0.4549380000000  0.5343220000000  0.5116610000000 1.0
C      1  0.4666340000000  0.5403830000000  0.5060410000000 1.0
C      1  0.5429370000000  0.5119690000000  0.4658630000000 1.0
C      1  0.5126000000000  0.4662300000000  0.5464510000000 1.0
C      1  0.5317160000000  0.5424760000000  0.4886730000000 1.0
C      1  0.5311000000000  0.4556440000000  0.5134540000000 1.0
C      1  0.4688910000000  0.4559820000000  0.4870470000000 1.0
C      1  0.4554330000000  0.5115600000000  0.5346300000000 1.0
C      1  0.4587450000000  0.4895810000000  0.4694050000000 1.0
C      1  0.5418700000000  0.4893390000000  0.5315320000000 1.0
C      1  0.4893820000000  0.4674700000000  0.4557690000000 1.0
C      1  0.4866800000000  0.5318110000000  0.5402210000000 1.0
C      1  0.5089660000000  0.5288610000000  0.4622710000000 1.0
C      1  0.4232620000000  0.4657310000000  0.4877610000000 1.0
C      1  0.4869680000000  0.4218570000000  0.4625850000000 1.0
C      1  0.4649900000000  0.4866840000000  0.4234320000000 1.0
C      1  0.5766270000000  0.4655630000000  0.5121800000000 1.0
C      1  0.4247590000000  0.5392490000000  0.5132670000000 1.0
C      1  0.5746060000000  0.5375090000000  0.4848240000000 1.0
C      1  0.5128380000000  0.4218460000000  0.5370200000000 1.0
C      1  0.4846860000000  0.5779640000000  0.5358650000000 1.0
C      1  0.5158480000000  0.5754810000000  0.4638570000000 1.0
C      1  0.5370930000000  0.4869000000000  0.5760650000000 1.0
C      1  0.4646480000000  0.5120770000000  0.5783400000000 1.0
C      1  0.5380000000000  0.5138660000000  0.4222530000000 1.0
C      1  0.4880300000000  0.4635790000000  0.4221660000000 1.0
C      1  0.4632060000000  0.4227370000000  0.4857500000000 1.0
C      1  0.4240520000000  0.4881550000000  0.4651020000000 1.0
C      1  0.5141400000000  0.4624380000000  0.5785250000000 1.0
C      1  0.5156340000000  0.5365820000000  0.4231680000000 1.0
C      1  0.4867720000000  0.5349950000000  0.5764930000000 1.0
C      1  0.5367670000000  0.4224260000000  0.5141140000000 1.0
C      1  0.5362840000000  0.5778340000000  0.4877380000000 1.0
C      1  0.4625550000000  0.5796990000000  0.5118720000000 1.0
C      1  0.5767210000000  0.4881120000000  0.5344920000000 1.0
C      1  0.5749860000000  0.5141080000000  0.4620760000000 1.0
C      1  0.4234190000000  0.5142020000000  0.5385220000000 1.0
C      1  0.5511580000000  0.4286140000000  0.4947890000000 1.0
C      1  0.4950740000000  0.5487700000000  0.4311650000000 1.0
C      1  0.4281750000000  0.4940080000000  0.5526710000000 1.0
C      1  0.4486550000000  0.4285480000000  0.5050000000000 1.0
C      1  0.5500620000000  0.5719220000000  0.5066920000000 1.0
C      1  0.4505570000000  0.5728080000000  0.4912800000000 1.0
C      1  0.5057450000000  0.5492630000000  0.5700150000000 1.0
C      1  0.4946140000000  0.4477080000000  0.5738410000000 1.0
C      1  0.5070570000000  0.4486430000000  0.4273090000000 1.0
C      1  0.5714410000000  0.4937730000000  0.4481480000000 1.0
C      1  0.4301840000000  0.5073920000000  0.4509650000000 1.0
C      1  0.5710440000000  0.5080240000000  0.5483220000000 1.0
C      1  0.4933110000000  0.4271560000000  0.5514700000000 1.0
C      1  0.4287420000000  0.5526570000000  0.4923500000000 1.0
C      1  0.5509400000000  0.4931670000000  0.4275520000000 1.0
C      1  0.5069610000000  0.4274650000000  0.4485430000000 1.0
C      1  0.5038430000000  0.5717650000000  0.5504180000000 1.0
C      1  0.4954260000000  0.5691470000000  0.4509070000000 1.0
C      1  0.5708500000000  0.5519190000000  0.5051140000000 1.0
C      1  0.5709340000000  0.4511360000000  0.4931100000000 1.0
C      1  0.4284180000000  0.4510860000000  0.5067860000000 1.0
C      1  0.4505600000000  0.4923790000000  0.5733600000000 1.0
C      1  0.4508140000000  0.5062100000000  0.4295530000000 1.0
C      1  0.5509590000000  0.5069700000000  0.5700860000000 1.0
C      1  0.4786940000000  0.4329600000000  0.5115180000000 1.0
C      1  0.5143840000000  0.4777340000000  0.4314860000000 1.0
C      1  0.4315960000000  0.5097940000000  0.4824930000000 1.0
C      1  0.5212080000000  0.4324650000000  0.4886130000000 1.0
C      1  0.4816140000000  0.5709840000000  0.4910240000000 1.0
C      1  0.5189230000000  0.5673210000000  0.5106380000000 1.0
C      1  0.4891120000000  0.4780280000000  0.5673300000000 1.0
C      1  0.5088180000000  0.5184170000000  0.5681020000000 1.0
C      1  0.4921690000000  0.5194880000000  0.4311380000000 1.0
C      1  0.5679440000000  0.5099690000000  0.5167000000000 1.0
C      1  0.4337040000000  0.4898920000000  0.5214670000000 1.0
C      1  0.5652710000000  0.4903770000000  0.4793050000000 1.0
C      1  0.5151460000000  0.4318440000000  0.4758340000000 1.0
C      1  0.4311830000000  0.4821960000000  0.5103610000000 1.0
C      1  0.4803960000000  0.5124870000000  0.4325080000000 1.0
C      1  0.4869790000000  0.4322510000000  0.5225120000000 1.0
C      1  0.4919900000000  0.5697600000000  0.4821110000000 1.0
C      1  0.5090970000000  0.5664470000000  0.5201820000000 1.0
C      1  0.5679600000000  0.4825700000000  0.4903350000000 1.0
C      1  0.5647410000000  0.5210530000000  0.5091810000000 1.0
C      1  0.4345450000000  0.5207820000000  0.4902100000000 1.0
C      1  0.5197930000000  0.5105720000000  0.5655890000000 1.0
C      1  0.5205700000000  0.4898050000000  0.4293010000000 1.0
C      1  0.4820970000000  0.4894960000000  0.5701810000000 1.0
C      1  0.4947950000000  0.4820450000000  0.4615080000000 1.0
C      1  0.4643070000000  0.4926970000000  0.4835080000000 1.0
C      1  0.4836820000000  0.4588170000000  0.4906490000000 1.0
C      1  0.5091500000000  0.4802980000000  0.5433500000000 1.0
C      1  0.4917580000000  0.5174690000000  0.5345140000000 1.0
C      1  0.5058510000000  0.5144590000000  0.4651550000000 1.0
C      1  0.5347190000000  0.4936950000000  0.5181880000000 1.0
C      1  0.4580940000000  0.5096730000000  0.5201640000000 1.0
C      1  0.5405450000000  0.5094420000000  0.4803260000000 1.0
C      1  0.5159550000000  0.4579840000000  0.5102130000000 1.0
C      1  0.4792730000000  0.5336520000000  0.5058520000000 1.0
C      1  0.5180870000000  0.5348350000000  0.4945030000000 1.0
C      1  0.4648950000000  0.4814090000000  0.4945030000000 1.0
C      1  0.4842540000000  0.4930370000000  0.4623910000000 1.0
C      1  0.4941020000000  0.4604570000000  0.4811220000000 1.0
C      1  0.5342450000000  0.4815470000000  0.5063820000000 1.0
C      1  0.5413630000000  0.5186590000000  0.4894330000000 1.0
C      1  0.4563510000000  0.5191270000000  0.5111860000000 1.0
C      1  0.5179400000000  0.4898970000000  0.5419730000000 1.0
C      1  0.5177020000000  0.5034950000000  0.4640430000000 1.0
C      1  0.4808980000000  0.5050400000000  0.5364040000000 1.0
C      1  0.5060110000000  0.4616890000000  0.5200080000000 1.0
C      1  0.5047000000000  0.5343860000000  0.4860670000000 1.0
C      1  0.4884270000000  0.5421850000000  0.5138620000000 1.0
C      1  0.4179960000000  0.5158650000000  0.5252790000000 1.0
C      1  0.5241430000000  0.4156360000000  0.5146120000000 1.0
C      1  0.5162210000000  0.5248370000000  0.4150750000000 1.0
C      1  0.5815390000000  0.5150850000000  0.4746480000000 1.0
C      1  0.4158720000000  0.4874670000000  0.4767410000000 1.0
C      1  0.5846990000000  0.4872870000000  0.5228750000000 1.0
C      1  0.4758350000000  0.4159680000000  0.4851810000000 1.0
C      1  0.5244360000000  0.5848940000000  0.4863680000000 1.0
C      1  0.4747340000000  0.5867660000000  0.5133350000000 1.0
C      1  0.4862030000000  0.5235620000000  0.5850750000000 1.0
C      1  0.5147890000000  0.4755860000000  0.5839740000000 1.0
C      1  0.4875040000000  0.4761660000000  0.4157690000000 1.0
C      1  0.5261550000000  0.5148620000000  0.4145630000000 1.0
C      1  0.5137780000000  0.4154540000000  0.5243970000000 1.0
C      1  0.4186880000000  0.5261440000000  0.5149910000000 1.0
C      1  0.4764130000000  0.5133660000000  0.5859430000000 1.0
C      1  0.4774340000000  0.4860950000000  0.4162690000000 1.0
C      1  0.5246270000000  0.4859580000000  0.5830180000000 1.0
C      1  0.4860300000000  0.4156150000000  0.4753210000000 1.0
C      1  0.4844920000000  0.5852800000000  0.5234610000000 1.0
C      1  0.5158420000000  0.5845100000000  0.4754210000000 1.0
C      1  0.5814200000000  0.5250930000000  0.4844320000000 1.0
C      1  0.5845790000000  0.4772780000000  0.5130110000000 1.0
C      1  0.4156490000000  0.4776160000000  0.4868130000000 1.0
C      1  0.5802020000000  0.5104300000000  0.5265050000000 1.0
C      1  0.5275770000000  0.5808060000000  0.5096300000000 1.0
C      1  0.5091300000000  0.5278180000000  0.5805920000000 1.0
C      1  0.4197540000000  0.5104300000000  0.4723610000000 1.0
C      1  0.5785330000000  0.4920140000000  0.4706810000000 1.0
C      1  0.4206210000000  0.4922320000000  0.5298900000000 1.0
C      1  0.4720980000000  0.5827220000000  0.4899260000000 1.0
C      1  0.5291780000000  0.4194700000000  0.4914890000000 1.0
C      1  0.4708940000000  0.4198810000000  0.5083500000000 1.0
C      1  0.4931050000000  0.5286270000000  0.4190140000000 1.0
C      1  0.5104740000000  0.4704370000000  0.4184620000000 1.0
C      1  0.4917100000000  0.4701190000000  0.5809510000000 1.0
C      1  0.5288450000000  0.5091840000000  0.5784350000000 1.0
C      1  0.5072650000000  0.5800050000000  0.5282400000000 1.0
C      1  0.5780150000000  0.5296910000000  0.5074170000000 1.0
C      1  0.4726730000000  0.5089870000000  0.4196350000000 1.0
C      1  0.4726920000000  0.4898700000000  0.5825990000000 1.0
C      1  0.5297070000000  0.4911570000000  0.4173590000000 1.0
C      1  0.4929430000000  0.5805900000000  0.4713500000000 1.0
C      1  0.4905450000000  0.4188680000000  0.5289560000000 1.0
C      1  0.5088530000000  0.4184930000000  0.4705690000000 1.0
C      1  0.4218870000000  0.5301110000000  0.4912170000000 1.0
C      1  0.4186080000000  0.4730140000000  0.5099260000000 1.0
C      1  0.5806690000000  0.4730140000000  0.4901110000000 1.0
C      1  0.5580970000000  0.5284850000000  0.5667520000000 1.0
C      1  0.5606830000000  0.5517510000000  0.5281460000000 1.0
C      1  0.5266530000000  0.5630030000000  0.5521810000000 1.0
C      1  0.4504750000000  0.5289610000000  0.4383730000000 1.0
C      1  0.5525590000000  0.4702790000000  0.4371560000000 1.0
C      1  0.4473500000000  0.4698370000000  0.5639160000000 1.0
C      1  0.4349250000000  0.5579250000000  0.4711710000000 1.0
C      1  0.5628720000000  0.4472520000000  0.4701080000000 1.0
C      1  0.4359740000000  0.4468670000000  0.5297350000000 1.0
C      1  0.4753930000000  0.5669490000000  0.4417830000000 1.0
C      1  0.5300850000000  0.4359070000000  0.4444170000000 1.0
C      1  0.4700690000000  0.4358650000000  0.5537610000000 1.0
C      1  0.5623900000000  0.5306990000000  0.5535500000000 1.0
C      1  0.5290410000000  0.5531260000000  0.5628850000000 1.0
C      1  0.5506940000000  0.5622140000000  0.5288490000000 1.0
C      1  0.4395160000000  0.5302960000000  0.4480740000000 1.0
C      1  0.4369370000000  0.4717160000000  0.5532100000000 1.0
C      1  0.5626670000000  0.4716850000000  0.4478120000000 1.0
C      1  0.4726860000000  0.5537500000000  0.4379720000000 1.0
C      1  0.4721780000000  0.4466160000000  0.5638490000000 1.0
C      1  0.5288210000000  0.4408380000000  0.4310870000000 1.0
C      1  0.4479640000000  0.5625640000000  0.4693980000000 1.0
C      1  0.4467200000000  0.4367870000000  0.5276350000000 1.0
C      1  0.5522340000000  0.4370810000000  0.4715980000000 1.0
C      1  0.4979560000000  0.5893960000000  0.5206610000000 1.0
C      1  0.5216710000000  0.4992190000000  0.5876960000000 1.0
C      1  0.5867030000000  0.5222640000000  0.4976550000000 1.0
C      1  0.5026630000000  0.5903480000000  0.4777400000000 1.0
C      1  0.4993090000000  0.4109640000000  0.4786390000000 1.0
C      1  0.5005550000000  0.4105370000000  0.5213450000000 1.0
C      1  0.4801580000000  0.4992680000000  0.4110560000000 1.0
C      1  0.5234320000000  0.5018160000000  0.4085270000000 1.0
C      1  0.4790160000000  0.5004870000000  0.5919980000000 1.0
C      1  0.4132820000000  0.5229160000000  0.5018110000000 1.0
C      1  0.5902290000000  0.4796950000000  0.4999130000000 1.0
C      1  0.4095920000000  0.4799940000000  0.4997780000000 1.0
C      1  0.5211080000000  0.5898800000000  0.4994790000000 1.0
C      1  0.5902320000000  0.5004510000000  0.5204000000000 1.0
C      1  0.4993900000000  0.5215040000000  0.5905520000000 1.0
C      1  0.4781130000000  0.5923320000000  0.5001480000000 1.0
C      1  0.4785420000000  0.4111180000000  0.4985390000000 1.0
C      1  0.5215390000000  0.4106590000000  0.5013080000000 1.0
C      1  0.4100400000000  0.5005770000000  0.4789040000000 1.0
C      1  0.4125560000000  0.5027810000000  0.5221130000000 1.0
C      1  0.5870420000000  0.5021500000000  0.4778710000000 1.0
C      1  0.5030030000000  0.5223190000000  0.4095640000000 1.0
C      1  0.5015680000000  0.4785170000000  0.5890400000000 1.0
C      1  0.5006730000000  0.4788330000000  0.4103880000000 1.0
C      1  0.4481000000000  0.5361440000000  0.5344500000000 1.0
C      1  0.5395640000000  0.5478010000000  0.4665560000000 1.0
C      1  0.4575970000000  0.4708040000000  0.4579850000000 1.0
C      1  0.5433460000000  0.4698470000000  0.5422900000000 1.0
END
