TITL C-3481908-886-2 -0.0205498642077545 1000000 -1629.01364235192 0 0 240 (C1) n - 1
REM
REM in /home/bkarasulu/CARBON/AIRSS/Generating-Clusters/GAP-ML-2020/Higher-Symm/Selected-Sizes/Larger-Clusters/Only-C240
REM
REM
REM
REM
REM
REM ./C.cell (db1db5b03a21c153a00b653f6831bbfd)
REM
REM compiler GCC version 9.2.1 20190827 (Red Hat 9.2.1-1)
REM options -cpp -mtune=generic -march=x86-64 -g -O0 -fpre-include=/usr/include/finclude/math-vector-fortran.h
REM seed -408742605 1553801608 1294549273 -597003373 892439742 2142646550 1048880543 1992828813 -1045536780 -1787473845 -1121632995 1753799482 -452358126 -760762094 -1932491143 -1409172565 2077300813 2097576771 -181138733 -1525714932 1581813729 2024276534 -878810836 -549502912 -654570481 1839933076 189963244 -855183216 1650071823 -1435622823 -1900414094 -1474501563 1306164835
REM
CELL 1.54180  100.00000  100.00000  100.00000   90.00000   90.00000   90.00000
LATT -1
SFAC C  
C      1  0.5380740000000  0.4759500000000  0.4411410000000 1.0
C      1  0.5424580000000  0.4811860000000  0.5626210000000 1.0
C      1  0.5188330000000  0.4847340000000  0.5701350000000 1.0
C      1  0.5126180000000  0.4804160000000  0.4360390000000 1.0
C      1  0.4575550000000  0.4814800000000  0.5540130000000 1.0
C      1  0.4534930000000  0.4832780000000  0.4453300000000 1.0
C      1  0.5226060000000  0.4888370000000  0.4670580000000 1.0
C      1  0.5242510000000  0.4933030000000  0.5343780000000 1.0
C      1  0.4679610000000  0.5146340000000  0.4404080000000 1.0
C      1  0.4688910000000  0.5134920000000  0.5629680000000 1.0
C      1  0.5783720000000  0.4817230000000  0.5439820000000 1.0
C      1  0.5735400000000  0.4780980000000  0.4582790000000 1.0
C      1  0.4734900000000  0.5265190000000  0.5243570000000 1.0
C      1  0.4759160000000  0.5302350000000  0.4728390000000 1.0
C      1  0.4604740000000  0.5082660000000  0.5524610000000 1.0
C      1  0.4580850000000  0.5096240000000  0.4499060000000 1.0
C      1  0.4330770000000  0.4493160000000  0.5055270000000 1.0
C      1  0.4333030000000  0.4486990000000  0.4911520000000 1.0
C      1  0.4849140000000  0.5087740000000  0.4625710000000 1.0
C      1  0.4836480000000  0.5081520000000  0.5388620000000 1.0
C      1  0.5003740000000  0.4579760000000  0.4415640000000 1.0
C      1  0.5026910000000  0.4469350000000  0.5584380000000 1.0
C      1  0.5375850000000  0.5275110000000  0.4442970000000 1.0
C      1  0.5387290000000  0.5319530000000  0.5563390000000 1.0
C      1  0.4395340000000  0.5189810000000  0.4794160000000 1.0
C      1  0.4379540000000  0.5171800000000  0.5150740000000 1.0
C      1  0.5245830000000  0.5345430000000  0.5179190000000 1.0
C      1  0.5241600000000  0.5338210000000  0.4806240000000 1.0
C      1  0.5309510000000  0.4315610000000  0.5373750000000 1.0
C      1  0.5347780000000  0.4478660000000  0.4632060000000 1.0
C      1  0.5067990000000  0.4933440000000  0.4356630000000 1.0
C      1  0.5153630000000  0.4973370000000  0.5706750000000 1.0
C      1  0.4328040000000  0.4959670000000  0.4681260000000 1.0
C      1  0.4334060000000  0.4950360000000  0.5312780000000 1.0
C      1  0.5800970000000  0.5012190000000  0.5281510000000 1.0
C      1  0.5740680000000  0.4953390000000  0.4769280000000 1.0
C      1  0.4788050000000  0.4723580000000  0.4557350000000 1.0
C      1  0.4856140000000  0.4719460000000  0.5470770000000 1.0
C      1  0.4203330000000  0.5007220000000  0.5273590000000 1.0
C      1  0.4206720000000  0.5033340000000  0.4671560000000 1.0
C      1  0.4381510000000  0.4727510000000  0.4896420000000 1.0
C      1  0.4394290000000  0.4731560000000  0.5037450000000 1.0
C      1  0.4706330000000  0.4808490000000  0.4281780000000 1.0
C      1  0.4726110000000  0.4789270000000  0.5724300000000 1.0
C      1  0.4491710000000  0.4806680000000  0.5096970000000 1.0
C      1  0.4463110000000  0.4809600000000  0.4808300000000 1.0
C      1  0.4707220000000  0.4932060000000  0.4236710000000 1.0
C      1  0.4748190000000  0.4909380000000  0.5771800000000 1.0
C      1  0.4836420000000  0.4428300000000  0.4513190000000 1.0
C      1  0.4860580000000  0.4348510000000  0.5442850000000 1.0
C      1  0.4566370000000  0.4382280000000  0.5066030000000 1.0
C      1  0.4573150000000  0.4375140000000  0.4920510000000 1.0
C      1  0.4665090000000  0.5923540000000  0.4844100000000 1.0
C      1  0.4647800000000  0.5908220000000  0.5182470000000 1.0
C      1  0.4693330000000  0.5314790000000  0.5125680000000 1.0
C      1  0.4708300000000  0.5332000000000  0.4849510000000 1.0
C      1  0.4392550000000  0.5439770000000  0.4846910000000 1.0
C      1  0.4381220000000  0.5425540000000  0.5123300000000 1.0
C      1  0.5322360000000  0.5626810000000  0.4500070000000 1.0
C      1  0.5284540000000  0.5648540000000  0.5454950000000 1.0
C      1  0.5107850000000  0.4978350000000  0.4857790000000 1.0
C      1  0.5118050000000  0.4988730000000  0.5141310000000 1.0
C      1  0.5188160000000  0.5421650000000  0.5059570000000 1.0
C      1  0.5179510000000  0.5419550000000  0.4917590000000 1.0
C      1  0.5144210000000  0.4522860000000  0.4767170000000 1.0
C      1  0.5148070000000  0.4425730000000  0.5208950000000 1.0
C      1  0.4337740000000  0.4605730000000  0.4829340000000 1.0
C      1  0.4355440000000  0.4616260000000  0.5125010000000 1.0
C      1  0.4588960000000  0.5552170000000  0.5136820000000 1.0
C      1  0.4599580000000  0.5566510000000  0.4859360000000 1.0
C      1  0.4465100000000  0.5522630000000  0.5067660000000 1.0
C      1  0.4470990000000  0.5530570000000  0.4917050000000 1.0
C      1  0.5256300000000  0.4539200000000  0.4697570000000 1.0
C      1  0.5243550000000  0.4372670000000  0.5280660000000 1.0
C      1  0.4343460000000  0.5311000000000  0.5148110000000 1.0
C      1  0.4359950000000  0.5326670000000  0.4812270000000 1.0
C      1  0.4950090000000  0.4767110000000  0.4732730000000 1.0
C      1  0.4993010000000  0.4767440000000  0.5280950000000 1.0
C      1  0.5315570000000  0.5114510000000  0.5727860000000 1.0
C      1  0.5265240000000  0.5058550000000  0.4319860000000 1.0
C      1  0.4592530000000  0.4539370000000  0.5374300000000 1.0
C      1  0.4498700000000  0.4539170000000  0.4509210000000 1.0
C      1  0.4859730000000  0.4675630000000  0.4672370000000 1.0
C      1  0.4920330000000  0.4666550000000  0.5351860000000 1.0
C      1  0.4788630000000  0.4459300000000  0.5371880000000 1.0
C      1  0.4717120000000  0.4442520000000  0.4581750000000 1.0
C      1  0.5078030000000  0.5324840000000  0.5053600000000 1.0
C      1  0.5055960000000  0.5328660000000  0.4913240000000 1.0
C      1  0.5040890000000  0.4508830000000  0.4835960000000 1.0
C      1  0.5044160000000  0.4462960000000  0.5149690000000 1.0
C      1  0.4692420000000  0.5457250000000  0.5082600000000 1.0
C      1  0.4698130000000  0.5466230000000  0.4912020000000 1.0
C      1  0.4661700000000  0.4447770000000  0.5285010000000 1.0
C      1  0.4724720000000  0.4467970000000  0.4723750000000 1.0
C      1  0.5066390000000  0.4581890000000  0.5631640000000 1.0
C      1  0.5065980000000  0.4686770000000  0.4398770000000 1.0
C      1  0.5460890000000  0.5063710000000  0.4453870000000 1.0
C      1  0.5486750000000  0.5113120000000  0.5568620000000 1.0
C      1  0.4526360000000  0.5162930000000  0.4829150000000 1.0
C      1  0.4508140000000  0.5151280000000  0.5105430000000 1.0
C      1  0.5699980000000  0.5007980000000  0.4887710000000 1.0
C      1  0.5728410000000  0.5035310000000  0.5165380000000 1.0
C      1  0.5369520000000  0.5495970000000  0.4523440000000 1.0
C      1  0.5351690000000  0.5525020000000  0.5452510000000 1.0
C      1  0.4622000000000  0.5225140000000  0.4902940000000 1.0
C      1  0.4608720000000  0.5221120000000  0.5046310000000 1.0
C      1  0.5715280000000  0.4731190000000  0.5507730000000 1.0
C      1  0.5696350000000  0.4705330000000  0.4487550000000 1.0
C      1  0.4596560000000  0.4798440000000  0.4833080000000 1.0
C      1  0.4606500000000  0.4809760000000  0.5145980000000 1.0
C      1  0.5146100000000  0.5102340000000  0.5071660000000 1.0
C      1  0.5145420000000  0.5099380000000  0.4917910000000 1.0
C      1  0.4809050000000  0.5680690000000  0.4867440000000 1.0
C      1  0.4796830000000  0.5668170000000  0.5154000000000 1.0
C      1  0.4753190000000  0.4645780000000  0.5539780000000 1.0
C      1  0.4698440000000  0.4654280000000  0.4468020000000 1.0
C      1  0.5500540000000  0.4951060000000  0.4514270000000 1.0
C      1  0.5519720000000  0.4997140000000  0.5511170000000 1.0
C      1  0.5082140000000  0.4859700000000  0.5070430000000 1.0
C      1  0.5045790000000  0.4877540000000  0.4930640000000 1.0
C      1  0.5323370000000  0.5403300000000  0.4418780000000 1.0
C      1  0.5319870000000  0.5443830000000  0.5570970000000 1.0
C      1  0.4415610000000  0.4855000000000  0.4676050000000 1.0
C      1  0.4420520000000  0.4873140000000  0.5361590000000 1.0
C      1  0.5257250000000  0.5598320000000  0.4384020000000 1.0
C      1  0.5225990000000  0.5631320000000  0.5576650000000 1.0
C      1  0.5276710000000  0.4817150000000  0.4337380000000 1.0
C      1  0.5337910000000  0.4871830000000  0.5715480000000 1.0
C      1  0.5208350000000  0.4788540000000  0.5079480000000 1.0
C      1  0.5313080000000  0.4754530000000  0.5023190000000 1.0
C      1  0.5552930000000  0.5426360000000  0.4718260000000 1.0
C      1  0.5547540000000  0.5453310000000  0.5266420000000 1.0
C      1  0.5328730000000  0.5360170000000  0.4713100000000 1.0
C      1  0.5328800000000  0.5367640000000  0.5277350000000 1.0
C      1  0.4830010000000  0.5334450000000  0.5568640000000 1.0
C      1  0.4846000000000  0.5334140000000  0.4454750000000 1.0
C      1  0.5650520000000  0.4392590000000  0.5651780000000 1.0
C      1  0.5608880000000  0.4401220000000  0.4279450000000 1.0
C      1  0.5258160000000  0.5484400000000  0.4317320000000 1.0
C      1  0.5244440000000  0.5531240000000  0.5660370000000 1.0
C      1  0.4313470000000  0.5091620000000  0.4733610000000 1.0
C      1  0.4300910000000  0.5071960000000  0.5215660000000 1.0
C      1  0.4634190000000  0.4751170000000  0.4381960000000 1.0
C      1  0.4667780000000  0.4731930000000  0.5616200000000 1.0
C      1  0.5580710000000  0.5527550000000  0.4807280000000 1.0
C      1  0.5573280000000  0.5543450000000  0.5165570000000 1.0
C      1  0.5652260000000  0.4458020000000  0.5760280000000 1.0
C      1  0.5685580000000  0.4462940000000  0.4199710000000 1.0
C      1  0.4702020000000  0.4543790000000  0.5465500000000 1.0
C      1  0.4633860000000  0.4533300000000  0.4505060000000 1.0
C      1  0.4800960000000  0.4445390000000  0.5082410000000 1.0
C      1  0.4805570000000  0.4445340000000  0.4941760000000 1.0
C      1  0.4427470000000  0.4379070000000  0.4911830000000 1.0
C      1  0.4423430000000  0.4383420000000  0.5067790000000 1.0
C      1  0.4921170000000  0.5422830000000  0.5547640000000 1.0
C      1  0.4930460000000  0.5433010000000  0.4455000000000 1.0
C      1  0.5706610000000  0.5153040000000  0.5087560000000 1.0
C      1  0.5696390000000  0.5141300000000  0.4940390000000 1.0
C      1  0.4828430000000  0.4778610000000  0.4948420000000 1.0
C      1  0.4844730000000  0.4780270000000  0.5091270000000 1.0
C      1  0.4905220000000  0.4510910000000  0.4857670000000 1.0
C      1  0.4910840000000  0.4491750000000  0.5164060000000 1.0
C      1  0.4491040000000  0.4641320000000  0.5352040000000 1.0
C      1  0.4431730000000  0.4637850000000  0.4582850000000 1.0
C      1  0.4951940000000  0.4788700000000  0.4875040000000 1.0
C      1  0.4976690000000  0.4779320000000  0.5140820000000 1.0
C      1  0.4799660000000  0.4857760000000  0.4537330000000 1.0
C      1  0.4859020000000  0.4853030000000  0.5486750000000 1.0
C      1  0.5610250000000  0.5319160000000  0.5267750000000 1.0
C      1  0.5603880000000  0.5287560000000  0.4735350000000 1.0
C      1  0.5563740000000  0.5119740000000  0.5448180000000 1.0
C      1  0.5547860000000  0.5076080000000  0.4568150000000 1.0
C      1  0.4931330000000  0.4473990000000  0.4445310000000 1.0
C      1  0.4949850000000  0.4375490000000  0.5528030000000 1.0
C      1  0.4840110000000  0.5787610000000  0.5089750000000 1.0
C      1  0.4846910000000  0.5793750000000  0.4944990000000 1.0
C      1  0.5630000000000  0.4536150000000  0.4306150000000 1.0
C      1  0.5629640000000  0.4531210000000  0.5644510000000 1.0
C      1  0.4681130000000  0.4994280000000  0.5684310000000 1.0
C      1  0.4655030000000  0.5015420000000  0.4333730000000 1.0
C      1  0.4411220000000  0.4616530000000  0.5247270000000 1.0
C      1  0.4370990000000  0.4603750000000  0.4699330000000 1.0
C      1  0.5012280000000  0.4895400000000  0.5343280000000 1.0
C      1  0.4988170000000  0.4883800000000  0.4664940000000 1.0
C      1  0.4690650000000  0.4416410000000  0.4855870000000 1.0
C      1  0.4673730000000  0.4423540000000  0.5147480000000 1.0
C      1  0.5173220000000  0.5102290000000  0.5729010000000 1.0
C      1  0.5126010000000  0.5047550000000  0.4348210000000 1.0
C      1  0.5747900000000  0.4865660000000  0.4679830000000 1.0
C      1  0.5814770000000  0.4913250000000  0.5360050000000 1.0
C      1  0.4778210000000  0.5170220000000  0.5317700000000 1.0
C      1  0.4798180000000  0.5193120000000  0.4671440000000 1.0
C      1  0.5440080000000  0.4877190000000  0.5503560000000 1.0
C      1  0.5425100000000  0.4827340000000  0.4527430000000 1.0
C      1  0.4625670000000  0.5812450000000  0.4787680000000 1.0
C      1  0.4605240000000  0.5792400000000  0.5225370000000 1.0
C      1  0.5395830000000  0.5196810000000  0.5635830000000 1.0
C      1  0.5365320000000  0.5144020000000  0.4388530000000 1.0
C      1  0.4592520000000  0.4952020000000  0.5576240000000 1.0
C      1  0.4559630000000  0.4971850000000  0.4433640000000 1.0
C      1  0.4828270000000  0.4563090000000  0.4746700000000 1.0
C      1  0.4880860000000  0.4548280000000  0.5293510000000 1.0
C      1  0.5336750000000  0.4886270000000  0.5407350000000 1.0
C      1  0.5333760000000  0.4841730000000  0.4632710000000 1.0
C      1  0.5670150000000  0.4908410000000  0.4984320000000 1.0
C      1  0.5670950000000  0.4914220000000  0.5110260000000 1.0
C      1  0.5557500000000  0.5246070000000  0.5383530000000 1.0
C      1  0.5546560000000  0.5206980000000  0.4625600000000 1.0
C      1  0.5146710000000  0.5231210000000  0.5138080000000 1.0
C      1  0.5139190000000  0.5222010000000  0.4846120000000 1.0
C      1  0.5678200000000  0.5260730000000  0.4856160000000 1.0
C      1  0.5687340000000  0.5281300000000  0.5152980000000 1.0
C      1  0.5657840000000  0.5508300000000  0.4913470000000 1.0
C      1  0.5656570000000  0.5517410000000  0.5064800000000 1.0
C      1  0.5657420000000  0.4628780000000  0.4395000000000 1.0
C      1  0.5660790000000  0.4638750000000  0.5574750000000 1.0
C      1  0.5464680000000  0.5331650000000  0.5446530000000 1.0
C      1  0.5459390000000  0.5293000000000  0.4554790000000 1.0
C      1  0.4814580000000  0.5549650000000  0.5077860000000 1.0
C      1  0.4819730000000  0.5557030000000  0.4934960000000 1.0
C      1  0.5373740000000  0.4993600000000  0.5784300000000 1.0
C      1  0.5313270000000  0.4934560000000  0.4264000000000 1.0
C      1  0.5110670000000  0.4943620000000  0.4717280000000 1.0
C      1  0.5124480000000  0.4965550000000  0.5282430000000 1.0
C      1  0.4651260000000  0.5666400000000  0.5198560000000 1.0
C      1  0.4667380000000  0.5683780000000  0.4811530000000 1.0
C      1  0.4757750000000  0.5914230000000  0.4944420000000 1.0
C      1  0.4750360000000  0.5907520000000  0.5091810000000 1.0
C      1  0.4872900000000  0.4952780000000  0.4602020000000 1.0
C      1  0.4895570000000  0.4958230000000  0.5410600000000 1.0
C      1  0.5716740000000  0.5376580000000  0.4926140000000 1.0
C      1  0.5719200000000  0.5386870000000  0.5066920000000 1.0
C      1  0.4460440000000  0.4780980000000  0.4562570000000 1.0
C      1  0.4498180000000  0.4776850000000  0.5421800000000 1.0
C      1  0.5432000000000  0.5415420000000  0.4629630000000 1.0
C      1  0.5424840000000  0.5440700000000  0.5356030000000 1.0
C      1  0.4764500000000  0.5248600000000  0.4399620000000 1.0
C      1  0.4761620000000  0.5246130000000  0.5638090000000 1.0
C      1  0.4703740000000  0.4785160000000  0.4892000000000 1.0
C      1  0.4730220000000  0.4780000000000  0.5171460000000 1.0
END
