TITL C-3481908-886-1 -167.271046557602 1000000 -3637.97558208609 0 0 520 (C1) n - 1
REM
REM in /home/bkarasulu/CARBON/AIRSS/Generating-Clusters/GAP-ML-2020/Higher-Symm/Selected-Sizes/Larger-Clusters/Only-C240
REM
REM
REM
REM
REM
REM ./C.cell (db1db5b03a21c153a00b653f6831bbfd)
REM
REM compiler GCC version 9.2.1 20190827 (Red Hat 9.2.1-1)
REM options -cpp -mtune=generic -march=x86-64 -g -O0 -fpre-include=/usr/include/finclude/math-vector-fortran.h
REM seed -1515870505 923748768 89995227 398020193 -1320416434 -779460244 -2098852390 2084060467 1937910689 1326678343 304671485 464787105 -1928678822 1305304549 -1812264169 -1207785368 -1919166572 1225264842 -1464102730 355736021 700815989 -1801464675 1174723787 -1641723835 -775732583 -1350429633 -1667583172 1456962187 973641957 -1712547089 -533552001 -1782640218 -595097204
REM
CELL 1.54180  100.00000  100.00000  100.00000   90.00000   90.00000   90.00000
LATT -1
SFAC C  
C      1  0.4602660000000  0.4926460000000  0.5483070000000 1.0
C      1  0.4936080000000  0.5407350000000  0.5496520000000 1.0
C      1  0.5408010000000  0.5066290000000  0.5499900000000 1.0
C      1  0.5066790000000  0.4591630000000  0.5499270000000 1.0
C      1  0.5397700000000  0.4778380000000  0.4248210000000 1.0
C      1  0.4778060000000  0.4602530000000  0.4248470000000 1.0
C      1  0.4601960000000  0.5221880000000  0.4248640000000 1.0
C      1  0.5221760000000  0.5397740000000  0.4248110000000 1.0
C      1  0.4736220000000  0.5432040000000  0.5269900000000 1.0
C      1  0.5434100000000  0.5265040000000  0.5271070000000 1.0
C      1  0.5265330000000  0.4566170000000  0.5270760000000 1.0
C      1  0.4566390000000  0.4735410000000  0.5270610000000 1.0
C      1  0.5442800000000  0.5014310000000  0.4566540000000 1.0
C      1  0.5014260000000  0.4557530000000  0.4566680000000 1.0
C      1  0.4557260000000  0.4985920000000  0.4567040000000 1.0
C      1  0.4985850000000  0.5442830000000  0.4566390000000 1.0
C      1  0.5499980000000  0.4652430000000  0.4452440000000 1.0
C      1  0.4652110000000  0.4500340000000  0.4452620000000 1.0
C      1  0.4499880000000  0.5347770000000  0.4453020000000 1.0
C      1  0.5347960000000  0.5499920000000  0.4452230000000 1.0
C      1  0.5147010000000  0.5099690000000  0.4835150000000 1.0
C      1  0.5099740000000  0.4853420000000  0.4835620000000 1.0
C      1  0.4853440000000  0.4900590000000  0.4835420000000 1.0
C      1  0.4900990000000  0.5146760000000  0.4834940000000 1.0
C      1  0.5700130000000  0.4906330000000  0.5441490000000 1.0
C      1  0.4907020000000  0.4299350000000  0.5440340000000 1.0
C      1  0.4301630000000  0.5091220000000  0.5436350000000 1.0
C      1  0.5094380000000  0.5700030000000  0.5440560000000 1.0
C      1  0.4679480000000  0.5111830000000  0.4237820000000 1.0
C      1  0.5111590000000  0.5320380000000  0.4237350000000 1.0
C      1  0.5320190000000  0.4888440000000  0.4237490000000 1.0
C      1  0.4888180000000  0.4679930000000  0.4237690000000 1.0
C      1  0.5339510000000  0.4160220000000  0.4965230000000 1.0
C      1  0.4160860000000  0.4661050000000  0.4966570000000 1.0
C      1  0.4660810000000  0.5839500000000  0.4965970000000 1.0
C      1  0.5840140000000  0.5339110000000  0.4965610000000 1.0
C      1  0.4490050000000  0.4645120000000  0.5503240000000 1.0
C      1  0.4645710000000  0.5507740000000  0.5501290000000 1.0
C      1  0.5512820000000  0.5354770000000  0.5504170000000 1.0
C      1  0.5354640000000  0.4487330000000  0.5503710000000 1.0
C      1  0.4465810000000  0.4325040000000  0.4943980000000 1.0
C      1  0.4325500000000  0.5533240000000  0.4946630000000 1.0
C      1  0.5534640000000  0.5675050000000  0.4943990000000 1.0
C      1  0.5675280000000  0.4465750000000  0.4944190000000 1.0
C      1  0.5122910000000  0.4615010000000  0.5231190000000 1.0
C      1  0.4613280000000  0.4880530000000  0.5233950000000 1.0
C      1  0.4879020000000  0.5384100000000  0.5230330000000 1.0
C      1  0.5385090000000  0.5122660000000  0.5231670000000 1.0
C      1  0.5775200000000  0.4833760000000  0.4666580000000 1.0
C      1  0.4833780000000  0.4225200000000  0.4666170000000 1.0
C      1  0.4224980000000  0.5166390000000  0.4667570000000 1.0
C      1  0.5166570000000  0.5775080000000  0.4666220000000 1.0
C      1  0.5104900000000  0.4673770000000  0.5093770000000 1.0
C      1  0.4672580000000  0.4896320000000  0.5094700000000 1.0
C      1  0.4896480000000  0.5325800000000  0.5092920000000 1.0
C      1  0.5326740000000  0.5104650000000  0.5094030000000 1.0
C      1  0.4658960000000  0.5055760000000  0.4938170000000 1.0
C      1  0.5056250000000  0.5341390000000  0.4937200000000 1.0
C      1  0.5341700000000  0.4944620000000  0.4937900000000 1.0
C      1  0.4944220000000  0.4658700000000  0.4938190000000 1.0
C      1  0.5333790000000  0.5141200000000  0.5765070000000 1.0
C      1  0.5138780000000  0.4665480000000  0.5763750000000 1.0
C      1  0.4659500000000  0.4860550000000  0.5764560000000 1.0
C      1  0.4850980000000  0.5326060000000  0.5766850000000 1.0
C      1  0.4364320000000  0.4974200000000  0.4718350000000 1.0
C      1  0.4974220000000  0.5636130000000  0.4716920000000 1.0
C      1  0.5636150000000  0.5026020000000  0.4717260000000 1.0
C      1  0.5026110000000  0.4364230000000  0.4717150000000 1.0
C      1  0.4558790000000  0.5559800000000  0.5026430000000 1.0
C      1  0.5560750000000  0.5441790000000  0.5025640000000 1.0
C      1  0.5442060000000  0.4439690000000  0.5025530000000 1.0
C      1  0.4440160000000  0.4558360000000  0.5026060000000 1.0
C      1  0.5341920000000  0.5000650000000  0.5779830000000 1.0
C      1  0.4997870000000  0.4657800000000  0.5778270000000 1.0
C      1  0.4645620000000  0.5000820000000  0.5780340000000 1.0
C      1  0.4993670000000  0.5342320000000  0.5777670000000 1.0
C      1  0.5898010000000  0.5180640000000  0.5301960000000 1.0
C      1  0.5181520000000  0.4101900000000  0.5301260000000 1.0
C      1  0.4103660000000  0.4817860000000  0.5303300000000 1.0
C      1  0.4818990000000  0.5896510000000  0.5301950000000 1.0
C      1  0.4755500000000  0.5598510000000  0.5209940000000 1.0
C      1  0.5599660000000  0.5245420000000  0.5210650000000 1.0
C      1  0.5245910000000  0.4400400000000  0.5210220000000 1.0
C      1  0.4401800000000  0.4754730000000  0.5212350000000 1.0
C      1  0.5214440000000  0.5444260000000  0.5701210000000 1.0
C      1  0.5443370000000  0.4782650000000  0.5701680000000 1.0
C      1  0.4782110000000  0.4555610000000  0.5700140000000 1.0
C      1  0.4553470000000  0.5226090000000  0.5705810000000 1.0
C      1  0.5049220000000  0.5327430000000  0.5420390000000 1.0
C      1  0.5328890000000  0.4952240000000  0.5422140000000 1.0
C      1  0.4953510000000  0.4671310000000  0.5421800000000 1.0
C      1  0.4674070000000  0.5045230000000  0.5423180000000 1.0
C      1  0.5304170000000  0.5010850000000  0.5287230000000 1.0
C      1  0.5011940000000  0.4696840000000  0.5287030000000 1.0
C      1  0.4699820000000  0.4988400000000  0.5286320000000 1.0
C      1  0.4990140000000  0.5302080000000  0.5286000000000 1.0
C      1  0.5016900000000  0.4668250000000  0.4331500000000 1.0
C      1  0.4667840000000  0.4983210000000  0.4331670000000 1.0
C      1  0.4982950000000  0.5332130000000  0.4331230000000 1.0
C      1  0.5331930000000  0.5017070000000  0.4331330000000 1.0
C      1  0.4720140000000  0.5463170000000  0.4885560000000 1.0
C      1  0.5463650000000  0.5280210000000  0.4885400000000 1.0
C      1  0.5280370000000  0.4536900000000  0.4885530000000 1.0
C      1  0.4536930000000  0.4720200000000  0.4885740000000 1.0
C      1  0.4717970000000  0.5824330000000  0.5330390000000 1.0
C      1  0.5826510000000  0.5282040000000  0.5330560000000 1.0
C      1  0.5282880000000  0.4173470000000  0.5329890000000 1.0
C      1  0.4175750000000  0.4716810000000  0.5331580000000 1.0
C      1  0.4849640000000  0.4568370000000  0.4588140000000 1.0
C      1  0.4568120000000  0.5150450000000  0.4588480000000 1.0
C      1  0.5150540000000  0.5431940000000  0.4587720000000 1.0
C      1  0.5431940000000  0.4849790000000  0.4587990000000 1.0
C      1  0.4405970000000  0.4599920000000  0.5402140000000 1.0
C      1  0.4602060000000  0.5592960000000  0.5401030000000 1.0
C      1  0.5596340000000  0.5398310000000  0.5402550000000 1.0
C      1  0.5398640000000  0.4403910000000  0.5402120000000 1.0
C      1  0.5768150000000  0.5289590000000  0.4634720000000 1.0
C      1  0.5289990000000  0.4232050000000  0.4634400000000 1.0
C      1  0.4232540000000  0.4711110000000  0.4636000000000 1.0
C      1  0.4709960000000  0.5768200000000  0.4634840000000 1.0
C      1  0.5859550000000  0.5043830000000  0.5308970000000 1.0
C      1  0.5044650000000  0.4140050000000  0.5308090000000 1.0
C      1  0.4141170000000  0.4954700000000  0.5309130000000 1.0
C      1  0.4956120000000  0.5859010000000  0.5308530000000 1.0
C      1  0.5005610000000  0.4711930000000  0.4722630000000 1.0
C      1  0.4711930000000  0.4994670000000  0.4722600000000 1.0
C      1  0.4994750000000  0.5288260000000  0.4721940000000 1.0
C      1  0.5288390000000  0.5005630000000  0.4722400000000 1.0
C      1  0.5780080000000  0.4795610000000  0.5029510000000 1.0
C      1  0.4796200000000  0.4219710000000  0.5028850000000 1.0
C      1  0.4219970000000  0.5204030000000  0.5030220000000 1.0
C      1  0.5204650000000  0.5779910000000  0.5029080000000 1.0
C      1  0.5412010000000  0.5268860000000  0.5740290000000 1.0
C      1  0.5266430000000  0.4586750000000  0.5740060000000 1.0
C      1  0.4584770000000  0.4728790000000  0.5739920000000 1.0
C      1  0.4724740000000  0.5405520000000  0.5737470000000 1.0
C      1  0.4985040000000  0.4351770000000  0.4395170000000 1.0
C      1  0.4351170000000  0.5015050000000  0.4396060000000 1.0
C      1  0.5015000000000  0.5648580000000  0.4395110000000 1.0
C      1  0.5648660000000  0.4985180000000  0.4395270000000 1.0
C      1  0.4390000000000  0.4907190000000  0.5185650000000 1.0
C      1  0.4906630000000  0.5609250000000  0.5180220000000 1.0
C      1  0.5609880000000  0.5094050000000  0.5181490000000 1.0
C      1  0.5094590000000  0.4390080000000  0.5180940000000 1.0
C      1  0.4266750000000  0.5207180000000  0.5368540000000 1.0
C      1  0.5210510000000  0.5733120000000  0.5367840000000 1.0
C      1  0.5732750000000  0.4790080000000  0.5368420000000 1.0
C      1  0.4790770000000  0.4265990000000  0.5367640000000 1.0
C      1  0.4761240000000  0.5221040000000  0.5574310000000 1.0
C      1  0.5223080000000  0.5243860000000  0.5576600000000 1.0
C      1  0.5244050000000  0.4776980000000  0.5576650000000 1.0
C      1  0.4779390000000  0.4755210000000  0.5574850000000 1.0
C      1  0.4668300000000  0.5641530000000  0.5096420000000 1.0
C      1  0.5642490000000  0.5332390000000  0.5096610000000 1.0
C      1  0.5332730000000  0.4357830000000  0.5096190000000 1.0
C      1  0.4358720000000  0.4667970000000  0.5097940000000 1.0
C      1  0.5756220000000  0.4764390000000  0.4885570000000 1.0
C      1  0.4764680000000  0.4243920000000  0.4885170000000 1.0
C      1  0.4244100000000  0.5235500000000  0.4886500000000 1.0
C      1  0.5235860000000  0.5756080000000  0.4885170000000 1.0
C      1  0.5797110000000  0.5228740000000  0.4754010000000 1.0
C      1  0.5229010000000  0.4203250000000  0.4753650000000 1.0
C      1  0.4203590000000  0.4771680000000  0.4755410000000 1.0
C      1  0.4771160000000  0.5796940000000  0.4753990000000 1.0
C      1  0.4960000000000  0.4905310000000  0.5524340000000 1.0
C      1  0.4910050000000  0.5040840000000  0.5521000000000 1.0
C      1  0.5045760000000  0.5092060000000  0.5523250000000 1.0
C      1  0.5095410000000  0.4956410000000  0.5525220000000 1.0
C      1  0.5496300000000  0.4991780000000  0.5603360000000 1.0
C      1  0.4992030000000  0.4503080000000  0.5602430000000 1.0
C      1  0.4430280000000  0.5068450000000  0.5648360000000 1.0
C      1  0.5008660000000  0.5496750000000  0.5600760000000 1.0
C      1  0.4464280000000  0.5377740000000  0.5389120000000 1.0
C      1  0.5383670000000  0.5538430000000  0.5385570000000 1.0
C      1  0.5538300000000  0.4616750000000  0.5385770000000 1.0
C      1  0.4617910000000  0.4460060000000  0.5385100000000 1.0
C      1  0.4687110000000  0.5355750000000  0.4982130000000 1.0
C      1  0.5356450000000  0.5313770000000  0.4982260000000 1.0
C      1  0.5313950000000  0.4644160000000  0.4982360000000 1.0
C      1  0.4644460000000  0.4686660000000  0.4982280000000 1.0
C      1  0.4945340000000  0.4197830000000  0.5068220000000 1.0
C      1  0.4198270000000  0.5054790000000  0.5069530000000 1.0
C      1  0.5055550000000  0.5801830000000  0.5068500000000 1.0
C      1  0.5802070000000  0.4944640000000  0.5068950000000 1.0
C      1  0.5845050000000  0.4991030000000  0.4837490000000 1.0
C      1  0.4991250000000  0.4155040000000  0.4836770000000 1.0
C      1  0.4155430000000  0.5008940000000  0.4838320000000 1.0
C      1  0.5009180000000  0.5845010000000  0.4837080000000 1.0
C      1  0.4722310000000  0.5674160000000  0.5347130000000 1.0
C      1  0.5676330000000  0.5278390000000  0.5347710000000 1.0
C      1  0.5279050000000  0.4323650000000  0.5347160000000 1.0
C      1  0.4326070000000  0.4720550000000  0.5349500000000 1.0
C      1  0.5378410000000  0.4433070000000  0.4559770000000 1.0
C      1  0.4432750000000  0.4621940000000  0.4560320000000 1.0
C      1  0.4621540000000  0.5567160000000  0.4560240000000 1.0
C      1  0.5567400000000  0.5378330000000  0.4559780000000 1.0
C      1  0.5033600000000  0.4245160000000  0.5404930000000 1.0
C      1  0.4246670000000  0.4965940000000  0.5405880000000 1.0
C      1  0.4967450000000  0.5753800000000  0.5405210000000 1.0
C      1  0.5754420000000  0.5032860000000  0.5405820000000 1.0
C      1  0.5564550000000  0.4925980000000  0.5484750000000 1.0
C      1  0.4926720000000  0.4434950000000  0.5483470000000 1.0
C      1  0.4432570000000  0.5072850000000  0.5499110000000 1.0
C      1  0.5075580000000  0.5564120000000  0.5482890000000 1.0
C      1  0.4327330000000  0.4587400000000  0.4792320000000 1.0
C      1  0.4587280000000  0.5672700000000  0.4792180000000 1.0
C      1  0.5673180000000  0.5412760000000  0.4791670000000 1.0
C      1  0.5412940000000  0.4327360000000  0.4791500000000 1.0
C      1  0.5345360000000  0.4211920000000  0.4842350000000 1.0
C      1  0.4212120000000  0.4655100000000  0.4843540000000 1.0
C      1  0.4654980000000  0.5788050000000  0.4842980000000 1.0
C      1  0.5788540000000  0.5345090000000  0.4842650000000 1.0
C      1  0.4529220000000  0.4201750000000  0.4941020000000 1.0
C      1  0.4202820000000  0.5469310000000  0.4943010000000 1.0
C      1  0.5470820000000  0.5798000000000  0.4941000000000 1.0
C      1  0.5798330000000  0.4529420000000  0.4941220000000 1.0
C      1  0.4703240000000  0.4546920000000  0.4976700000000 1.0
C      1  0.4547000000000  0.5297300000000  0.4977590000000 1.0
C      1  0.5297620000000  0.5453450000000  0.4976560000000 1.0
C      1  0.5453640000000  0.4702840000000  0.4976800000000 1.0
C      1  0.5013480000000  0.5102210000000  0.5117110000000 1.0
C      1  0.5103400000000  0.4987380000000  0.5118340000000 1.0
C      1  0.4988560000000  0.4897440000000  0.5118700000000 1.0
C      1  0.4898630000000  0.5012280000000  0.5117340000000 1.0
C      1  0.5419110000000  0.5410230000000  0.5069720000000 1.0
C      1  0.5410600000000  0.4581400000000  0.5069660000000 1.0
C      1  0.4582000000000  0.4589660000000  0.5069440000000 1.0
C      1  0.4590230000000  0.5417720000000  0.5069760000000 1.0
C      1  0.5741540000000  0.5097260000000  0.4807110000000 1.0
C      1  0.5097450000000  0.4258750000000  0.4806780000000 1.0
C      1  0.4259250000000  0.4903020000000  0.4808650000000 1.0
C      1  0.4902890000000  0.5741480000000  0.4806740000000 1.0
C      1  0.4966690000000  0.4754920000000  0.4462500000000 1.0
C      1  0.4754600000000  0.5033440000000  0.4462520000000 1.0
C      1  0.5033300000000  0.5245470000000  0.4462150000000 1.0
C      1  0.5245300000000  0.4966820000000  0.4462330000000 1.0
C      1  0.5188520000000  0.5812910000000  0.5253930000000 1.0
C      1  0.5812690000000  0.4811800000000  0.5254510000000 1.0
C      1  0.4812490000000  0.4186240000000  0.5253640000000 1.0
C      1  0.4186220000000  0.5187050000000  0.5254570000000 1.0
C      1  0.4831620000000  0.5445220000000  0.4786360000000 1.0
C      1  0.5445340000000  0.5168790000000  0.4786470000000 1.0
C      1  0.5168830000000  0.4555080000000  0.4786570000000 1.0
C      1  0.4555230000000  0.4831360000000  0.4786790000000 1.0
C      1  0.5511500000000  0.5235490000000  0.4551900000000 1.0
C      1  0.5235530000000  0.4488920000000  0.4552030000000 1.0
C      1  0.4488670000000  0.4764750000000  0.4552440000000 1.0
C      1  0.4764490000000  0.5511430000000  0.4552060000000 1.0
C      1  0.4699680000000  0.5385830000000  0.5412360000000 1.0
C      1  0.5389510000000  0.5301900000000  0.5413860000000 1.0
C      1  0.5301970000000  0.4610970000000  0.5413540000000 1.0
C      1  0.4613350000000  0.4696010000000  0.5411380000000 1.0
C      1  0.5032340000000  0.5157750000000  0.4784590000000 1.0
C      1  0.5158100000000  0.4968100000000  0.4785420000000 1.0
C      1  0.4968240000000  0.4842210000000  0.4785650000000 1.0
C      1  0.4842480000000  0.5032040000000  0.4785150000000 1.0
C      1  0.4831620000000  0.4544510000000  0.5046350000000 1.0
C      1  0.4545160000000  0.5168900000000  0.5047440000000 1.0
C      1  0.5169200000000  0.5455850000000  0.5046020000000 1.0
C      1  0.5456120000000  0.4831220000000  0.5046560000000 1.0
C      1  0.4735570000000  0.5285460000000  0.4702680000000 1.0
C      1  0.5285610000000  0.5264640000000  0.4702340000000 1.0
C      1  0.5264640000000  0.4714900000000  0.4702610000000 1.0
C      1  0.4714710000000  0.4735630000000  0.4702740000000 1.0
C      1  0.4431890000000  0.5233900000000  0.4537590000000 1.0
C      1  0.5234060000000  0.5568060000000  0.4536550000000 1.0
C      1  0.5568080000000  0.4766320000000  0.4536850000000 1.0
C      1  0.4766150000000  0.4432290000000  0.4536880000000 1.0
C      1  0.4968270000000  0.4901480000000  0.5839330000000 1.0
C      1  0.4895700000000  0.5029160000000  0.5833890000000 1.0
C      1  0.5023690000000  0.5100030000000  0.5837860000000 1.0
C      1  0.5096230000000  0.4972800000000  0.5840680000000 1.0
C      1  0.4792290000000  0.5103980000000  0.5491710000000 1.0
C      1  0.5106450000000  0.5211450000000  0.5495390000000 1.0
C      1  0.5213410000000  0.4894520000000  0.5496410000000 1.0
C      1  0.4898110000000  0.4786690000000  0.5497280000000 1.0
C      1  0.4503900000000  0.5451520000000  0.4808550000000 1.0
C      1  0.5451920000000  0.5496110000000  0.4807720000000 1.0
C      1  0.5496270000000  0.4548560000000  0.4807730000000 1.0
C      1  0.4548620000000  0.4504140000000  0.4808010000000 1.0
C      1  0.5136620000000  0.4332530000000  0.4946490000000 1.0
C      1  0.4333280000000  0.4863860000000  0.4948640000000 1.0
C      1  0.4863970000000  0.5667540000000  0.4946370000000 1.0
C      1  0.5667810000000  0.5136360000000  0.4946860000000 1.0
C      1  0.5393660000000  0.4916940000000  0.4800970000000 1.0
C      1  0.4916870000000  0.4606750000000  0.4801090000000 1.0
C      1  0.4606750000000  0.5083370000000  0.4801430000000 1.0
C      1  0.5083600000000  0.5393510000000  0.4800360000000 1.0
C      1  0.5554840000000  0.4924250000000  0.4827750000000 1.0
C      1  0.4924350000000  0.4445510000000  0.4827690000000 1.0
C      1  0.4445550000000  0.5075990000000  0.4828750000000 1.0
C      1  0.5076170000000  0.5554710000000  0.4827220000000 1.0
C      1  0.5380940000000  0.5295680000000  0.4587270000000 1.0
C      1  0.5295720000000  0.4619470000000  0.4587500000000 1.0
C      1  0.4619260000000  0.4704540000000  0.4587670000000 1.0
C      1  0.4704390000000  0.5380810000000  0.4587570000000 1.0
C      1  0.5026370000000  0.5245410000000  0.5147010000000 1.0
C      1  0.5246670000000  0.4974620000000  0.5148250000000 1.0
C      1  0.4975190000000  0.4754280000000  0.5148330000000 1.0
C      1  0.4755660000000  0.5025600000000  0.5147570000000 1.0
C      1  0.4507280000000  0.4371680000000  0.4802070000000 1.0
C      1  0.4371320000000  0.5492660000000  0.4803840000000 1.0
C      1  0.5493170000000  0.5628620000000  0.4801960000000 1.0
C      1  0.5628770000000  0.4507230000000  0.4802130000000 1.0
C      1  0.4669870000000  0.4599880000000  0.4333160000000 1.0
C      1  0.4599400000000  0.5330050000000  0.4333330000000 1.0
C      1  0.5330020000000  0.5400390000000  0.4332740000000 1.0
C      1  0.5400360000000  0.4670230000000  0.4332940000000 1.0
C      1  0.5261620000000  0.5210460000000  0.4566430000000 1.0
C      1  0.5210440000000  0.4738670000000  0.4566650000000 1.0
C      1  0.4738430000000  0.4789780000000  0.4566710000000 1.0
C      1  0.4789550000000  0.5261620000000  0.4566590000000 1.0
C      1  0.4452760000000  0.4595090000000  0.4871500000000 1.0
C      1  0.4595050000000  0.5547370000000  0.4871620000000 1.0
C      1  0.5547890000000  0.5405150000000  0.4871080000000 1.0
C      1  0.5405300000000  0.4452620000000  0.4871020000000 1.0
C      1  0.5794840000000  0.4627700000000  0.4840870000000 1.0
C      1  0.4627790000000  0.4205560000000  0.4840820000000 1.0
C      1  0.4205220000000  0.5372120000000  0.4841860000000 1.0
C      1  0.5372610000000  0.5794670000000  0.4840590000000 1.0
C      1  0.4920070000000  0.4777470000000  0.5798160000000 1.0
C      1  0.4771000000000  0.5076420000000  0.5788850000000 1.0
C      1  0.5073200000000  0.5224550000000  0.5798530000000 1.0
C      1  0.5221510000000  0.4923890000000  0.5800330000000 1.0
C      1  0.5658200000000  0.4670740000000  0.5340740000000 1.0
C      1  0.4671230000000  0.4340030000000  0.5340090000000 1.0
C      1  0.4344090000000  0.5325220000000  0.5342500000000 1.0
C      1  0.5329760000000  0.5658350000000  0.5340330000000 1.0
C      1  0.5521610000000  0.5112320000000  0.4658600000000 1.0
C      1  0.5112370000000  0.4478780000000  0.4658660000000 1.0
C      1  0.4478710000000  0.4887910000000  0.4659260000000 1.0
C      1  0.4887880000000  0.5521590000000  0.4658450000000 1.0
C      1  0.4145530000000  0.5061110000000  0.5213160000000 1.0
C      1  0.5062540000000  0.5853650000000  0.5212360000000 1.0
C      1  0.5853850000000  0.4937540000000  0.5212840000000 1.0
C      1  0.4938360000000  0.4145550000000  0.5211930000000 1.0
C      1  0.5296020000000  0.4840970000000  0.4514720000000 1.0
C      1  0.4840820000000  0.4704240000000  0.4514880000000 1.0
C      1  0.4703890000000  0.5159280000000  0.4514960000000 1.0
C      1  0.5159250000000  0.5296040000000  0.4514570000000 1.0
C      1  0.4285780000000  0.5401970000000  0.4730600000000 1.0
C      1  0.5402170000000  0.5714130000000  0.4729180000000 1.0
C      1  0.5714290000000  0.4598230000000  0.4729430000000 1.0
C      1  0.4598290000000  0.4286150000000  0.4729400000000 1.0
C      1  0.5774310000000  0.4718340000000  0.5146270000000 1.0
C      1  0.4718910000000  0.4224940000000  0.5145480000000 1.0
C      1  0.4226180000000  0.5280730000000  0.5147550000000 1.0
C      1  0.5281970000000  0.5774350000000  0.5145780000000 1.0
C      1  0.4409980000000  0.4906610000000  0.4353590000000 1.0
C      1  0.4906330000000  0.5589920000000  0.4352990000000 1.0
C      1  0.5589820000000  0.5093630000000  0.4352880000000 1.0
C      1  0.5093640000000  0.4410510000000  0.4353020000000 1.0
C      1  0.5543900000000  0.4942470000000  0.4993440000000 1.0
C      1  0.4942660000000  0.4456300000000  0.4993300000000 1.0
C      1  0.4457110000000  0.5057790000000  0.4994900000000 1.0
C      1  0.5058090000000  0.5543760000000  0.4992610000000 1.0
C      1  0.5429580000000  0.4568820000000  0.4541090000000 1.0
C      1  0.4568480000000  0.4570690000000  0.4541330000000 1.0
C      1  0.4570420000000  0.5431410000000  0.4541530000000 1.0
C      1  0.5431650000000  0.5429550000000  0.4540890000000 1.0
C      1  0.5665570000000  0.4727820000000  0.4667810000000 1.0
C      1  0.4727840000000  0.4334820000000  0.4667690000000 1.0
C      1  0.4334560000000  0.5272410000000  0.4668730000000 1.0
C      1  0.5272550000000  0.5665460000000  0.4667500000000 1.0
C      1  0.5115310000000  0.5657850000000  0.4488280000000 1.0
C      1  0.5657900000000  0.4885080000000  0.4488620000000 1.0
C      1  0.4884870000000  0.4342540000000  0.4488480000000 1.0
C      1  0.4342070000000  0.5115030000000  0.4489570000000 1.0
C      1  0.5659170000000  0.5138200000000  0.5422040000000 1.0
C      1  0.5138850000000  0.4340470000000  0.5421400000000 1.0
C      1  0.4341400000000  0.4859540000000  0.5427800000000 1.0
C      1  0.4862740000000  0.5657650000000  0.5420940000000 1.0
C      1  0.4960780000000  0.5505430000000  0.5261170000000 1.0
C      1  0.5506110000000  0.5040710000000  0.5263430000000 1.0
C      1  0.5041330000000  0.4493700000000  0.5262740000000 1.0
C      1  0.4490250000000  0.4961900000000  0.5271140000000 1.0
C      1  0.5485900000000  0.4697350000000  0.4830180000000 1.0
C      1  0.4697470000000  0.4514390000000  0.4830260000000 1.0
C      1  0.4514430000000  0.5302790000000  0.4830950000000 1.0
C      1  0.5303100000000  0.5485790000000  0.4829950000000 1.0
C      1  0.5610460000000  0.4780620000000  0.4810440000000 1.0
C      1  0.4780750000000  0.4389800000000  0.4810330000000 1.0
C      1  0.4389900000000  0.5219470000000  0.4811420000000 1.0
C      1  0.5219800000000  0.5610360000000  0.4810030000000 1.0
C      1  0.4784740000000  0.4782950000000  0.5732270000000 1.0
C      1  0.4801760000000  0.5200180000000  0.5720560000000 1.0
C      1  0.5210440000000  0.5220270000000  0.5735150000000 1.0
C      1  0.5218450000000  0.4788460000000  0.5735320000000 1.0
C      1  0.5063290000000  0.5085040000000  0.4273220000000 1.0
C      1  0.5084800000000  0.4936740000000  0.4273320000000 1.0
C      1  0.4936450000000  0.4915240000000  0.4273450000000 1.0
C      1  0.4914930000000  0.5063560000000  0.4273370000000 1.0
C      1  0.4838060000000  0.4814760000000  0.4235790000000 1.0
C      1  0.4814350000000  0.5161870000000  0.4235720000000 1.0
C      1  0.5161680000000  0.5185520000000  0.4235490000000 1.0
C      1  0.5185310000000  0.4838420000000  0.4235570000000 1.0
C      1  0.4610250000000  0.5233920000000  0.5566820000000 1.0
C      1  0.5238760000000  0.5397020000000  0.5563120000000 1.0
C      1  0.5397370000000  0.4760920000000  0.5563220000000 1.0
C      1  0.4762150000000  0.4602260000000  0.5562320000000 1.0
C      1  0.4510260000000  0.5487870000000  0.5294520000000 1.0
C      1  0.5492220000000  0.5491700000000  0.5292580000000 1.0
C      1  0.5491780000000  0.4508130000000  0.5292670000000 1.0
C      1  0.4509250000000  0.4507600000000  0.5292200000000 1.0
C      1  0.4326080000000  0.4609060000000  0.4648820000000 1.0
C      1  0.4608500000000  0.5673950000000  0.4648570000000 1.0
C      1  0.5674250000000  0.5391310000000  0.4648100000000 1.0
C      1  0.5391570000000  0.4326180000000  0.4647940000000 1.0
C      1  0.5154480000000  0.4706350000000  0.4279730000000 1.0
C      1  0.4705970000000  0.4845630000000  0.4279920000000 1.0
C      1  0.4845250000000  0.5293990000000  0.4279720000000 1.0
C      1  0.5293790000000  0.5154640000000  0.4279570000000 1.0
C      1  0.4849960000000  0.5513520000000  0.4921780000000 1.0
C      1  0.5513910000000  0.5150540000000  0.4922190000000 1.0
C      1  0.5150650000000  0.4486570000000  0.4922060000000 1.0
C      1  0.4486810000000  0.4849750000000  0.4923010000000 1.0
C      1  0.4740300000000  0.4776250000000  0.5040630000000 1.0
C      1  0.4776640000000  0.5259250000000  0.5039260000000 1.0
C      1  0.5260030000000  0.5224300000000  0.5039770000000 1.0
C      1  0.5224630000000  0.4740670000000  0.5039950000000 1.0
C      1  0.4267020000000  0.4736920000000  0.5013900000000 1.0
C      1  0.4737250000000  0.5733390000000  0.5012610000000 1.0
C      1  0.5733980000000  0.5263080000000  0.5012690000000 1.0
C      1  0.5263390000000  0.4266360000000  0.5012290000000 1.0
C      1  0.4125790000000  0.4990880000000  0.4967690000000 1.0
C      1  0.4991910000000  0.5874760000000  0.4966580000000 1.0
C      1  0.5874850000000  0.5008320000000  0.4966990000000 1.0
C      1  0.5008820000000  0.4124990000000  0.4966150000000 1.0
C      1  0.5657440000000  0.5026790000000  0.5056680000000 1.0
C      1  0.5027140000000  0.4342680000000  0.5056280000000 1.0
C      1  0.4344040000000  0.4973550000000  0.5059040000000 1.0
C      1  0.4973670000000  0.5657320000000  0.5055800000000 1.0
C      1  0.5070940000000  0.5449050000000  0.5716030000000 1.0
C      1  0.5448170000000  0.4925640000000  0.5716500000000 1.0
C      1  0.4924660000000  0.4551110000000  0.5715030000000 1.0
C      1  0.4529690000000  0.5084910000000  0.5738140000000 1.0
C      1  0.5426810000000  0.4692600000000  0.5434220000000 1.0
C      1  0.4694960000000  0.4571220000000  0.5431590000000 1.0
C      1  0.4576580000000  0.5302470000000  0.5436960000000 1.0
C      1  0.5307800000000  0.5426730000000  0.5433900000000 1.0
C      1  0.4898510000000  0.5032260000000  0.4426230000000 1.0
C      1  0.5032010000000  0.5101590000000  0.4426050000000 1.0
C      1  0.5101360000000  0.4968120000000  0.4426160000000 1.0
C      1  0.4967880000000  0.4898800000000  0.4426280000000 1.0
C      1  0.5136770000000  0.5302090000000  0.5057430000000 1.0
C      1  0.5302650000000  0.4863910000000  0.5058210000000 1.0
C      1  0.4863940000000  0.4698450000000  0.5058630000000 1.0
C      1  0.4698820000000  0.5136180000000  0.5058090000000 1.0
C      1  0.4507120000000  0.4804290000000  0.4405870000000 1.0
C      1  0.4803930000000  0.5492920000000  0.4405490000000 1.0
C      1  0.5492810000000  0.5195970000000  0.4405310000000 1.0
C      1  0.5195960000000  0.4507490000000  0.4405490000000 1.0
C      1  0.5409460000000  0.5395110000000  0.5210740000000 1.0
C      1  0.5395360000000  0.4590910000000  0.5210660000000 1.0
C      1  0.4591360000000  0.4605210000000  0.5210340000000 1.0
C      1  0.4606140000000  0.5406950000000  0.5210620000000 1.0
C      1  0.4855630000000  0.5295280000000  0.4782690000000 1.0
C      1  0.5295430000000  0.5144910000000  0.4782870000000 1.0
C      1  0.5144900000000  0.4704980000000  0.4783080000000 1.0
C      1  0.4705080000000  0.4855420000000  0.4783120000000 1.0
C      1  0.4785380000000  0.4609010000000  0.4733650000000 1.0
C      1  0.4608950000000  0.5214880000000  0.4734010000000 1.0
C      1  0.5215120000000  0.5391250000000  0.4733240000000 1.0
C      1  0.5391300000000  0.4785420000000  0.4733600000000 1.0
C      1  0.5045550000000  0.4541560000000  0.4412750000000 1.0
C      1  0.4541170000000  0.4954600000000  0.4413060000000 1.0
C      1  0.4954380000000  0.5458850000000  0.4412530000000 1.0
C      1  0.5458690000000  0.5045660000000  0.4412560000000 1.0
C      1  0.4613180000000  0.4304220000000  0.5212350000000 1.0
C      1  0.4307630000000  0.5384670000000  0.5215780000000 1.0
C      1  0.5387720000000  0.5694830000000  0.5212680000000 1.0
C      1  0.5694770000000  0.4612690000000  0.5213100000000 1.0
C      1  0.5502250000000  0.5612540000000  0.5187370000000 1.0
C      1  0.5612580000000  0.4498080000000  0.5187660000000 1.0
C      1  0.4498960000000  0.4387170000000  0.5187180000000 1.0
C      1  0.4389760000000  0.5499510000000  0.5190440000000 1.0
C      1  0.5381110000000  0.5258100000000  0.4327610000000 1.0
C      1  0.5258040000000  0.4619130000000  0.4327800000000 1.0
C      1  0.4618720000000  0.4742160000000  0.4328060000000 1.0
C      1  0.4741750000000  0.5381230000000  0.4327920000000 1.0
C      1  0.5468480000000  0.5276730000000  0.5613240000000 1.0
C      1  0.5276360000000  0.4531490000000  0.5612650000000 1.0
C      1  0.4535940000000  0.4719690000000  0.5611060000000 1.0
C      1  0.4726340000000  0.5465250000000  0.5609990000000 1.0
C      1  0.4560930000000  0.5147710000000  0.5455400000000 1.0
C      1  0.5155040000000  0.5443060000000  0.5445240000000 1.0
C      1  0.5443820000000  0.4846610000000  0.5447170000000 1.0
C      1  0.4847160000000  0.4555860000000  0.5446110000000 1.0
C      1  0.5357330000000  0.5202170000000  0.5523460000000 1.0
C      1  0.5202360000000  0.4642770000000  0.5523140000000 1.0
C      1  0.4648970000000  0.4796240000000  0.5516350000000 1.0
C      1  0.4800840000000  0.5357080000000  0.5521070000000 1.0
C      1  0.4611500000000  0.5333010000000  0.5766820000000 1.0
C      1  0.5292200000000  0.5346760000000  0.5767560000000 1.0
C      1  0.5344760000000  0.4705850000000  0.5767670000000 1.0
C      1  0.4705480000000  0.4654120000000  0.5765670000000 1.0
C      1  0.5532970000000  0.5065640000000  0.5409350000000 1.0
C      1  0.5066370000000  0.4466710000000  0.5408630000000 1.0
C      1  0.4467220000000  0.4935570000000  0.5425790000000 1.0
C      1  0.4936310000000  0.5532190000000  0.5406560000000 1.0
C      1  0.4941250000000  0.4288830000000  0.4607660000000 1.0
C      1  0.4288580000000  0.5058920000000  0.4609020000000 1.0
C      1  0.5059120000000  0.5711580000000  0.4607550000000 1.0
C      1  0.5711640000000  0.4941190000000  0.4607940000000 1.0
C      1  0.5295870000000  0.5054160000000  0.4574720000000 1.0
C      1  0.5054100000000  0.4704420000000  0.4574900000000 1.0
C      1  0.4704190000000  0.4946080000000  0.4574970000000 1.0
C      1  0.4945950000000  0.5295950000000  0.4574540000000 1.0
C      1  0.5050160000000  0.4569720000000  0.4993460000000 1.0
C      1  0.4570000000000  0.4950410000000  0.4993600000000 1.0
C      1  0.4950670000000  0.5430410000000  0.4992830000000 1.0
C      1  0.5430800000000  0.5050100000000  0.4993530000000 1.0
C      1  0.4859710000000  0.4174460000000  0.4793190000000 1.0
C      1  0.4174510000000  0.5140500000000  0.4794700000000 1.0
C      1  0.5140680000000  0.5825600000000  0.4793390000000 1.0
C      1  0.5825730000000  0.4859550000000  0.4793770000000 1.0
C      1  0.4437590000000  0.4409390000000  0.5059940000000 1.0
C      1  0.4410330000000  0.5561430000000  0.5062450000000 1.0
C      1  0.5563250000000  0.5590580000000  0.5059870000000 1.0
C      1  0.5590780000000  0.4437180000000  0.5060010000000 1.0
END
