TITL C-3450917-7317-7 0.00813667269374025 1000000 -2207.53629298369 0 0 320 (Th) n - 1
REM
REM in /home/nfs/bkarasulu/CARBON/AIRSS/Generating-Clusters/GAP-ML-2020/Higher-Symm/Selected-Sizes/Larger-Clusters
REM
REM
REM
REM
REM
REM ./C.cell (2cf5181f0f1d4d5b12b972d32ad12063)
REM
REM compiler GCC version 9.2.1 20190827 (Red Hat 9.2.1-1)
REM options -cpp -mtune=generic -march=x86-64 -g -O0 -fpre-include=/usr/include/finclude/math-vector-fortran.h
REM seed 1370091825 -1502895256 -1666977626 245712422 -133518897 -1650926902 -1556574042 -717564969 -1587003299 -1193679359 26229232 -411367107 19451002 -1217267743 492536648 -2007694005 457214363 -2120836023 1675424482 -1331846400 -1209265742 -160744197 661555978 -890959411 -297443360 1344948608 -137699783 -1576098352 94540306 1771913092 1983536821 1253881489 1062171499
REM
CELL 1.54180  100.00000  100.00000  100.00000   90.00000   90.00000   90.00000
LATT -1
SFAC C  
C      1  0.5071020000000  0.5340700000000  0.4713360000000 1.0
C      1  0.4713510000000  0.5070730000000  0.5340900000000 1.0
C      1  0.5341020000000  0.4713190000000  0.5070890000000 1.0
C      1  0.4929310000000  0.4659020000000  0.4713380000000 1.0
C      1  0.4929330000000  0.5340710000000  0.5286730000000 1.0
C      1  0.5071050000000  0.4659030000000  0.5286730000000 1.0
C      1  0.5286880000000  0.4929020000000  0.5340870000000 1.0
C      1  0.5286840000000  0.5070720000000  0.4659190000000 1.0
C      1  0.4713480000000  0.4929000000000  0.4659220000000 1.0
C      1  0.4659340000000  0.5286550000000  0.5070920000000 1.0
C      1  0.4659340000000  0.4713180000000  0.4929210000000 1.0
C      1  0.5341010000000  0.5286550000000  0.4929170000000 1.0
C      1  0.5071050000000  0.5340710000000  0.5286720000000 1.0
C      1  0.4713480000000  0.5070720000000  0.4659220000000 1.0
C      1  0.5341020000000  0.4713190000000  0.4929180000000 1.0
C      1  0.4929340000000  0.4659030000000  0.5286740000000 1.0
C      1  0.4929310000000  0.5340700000000  0.4713360000000 1.0
C      1  0.5071030000000  0.4659020000000  0.4713370000000 1.0
C      1  0.5286840000000  0.4929010000000  0.4659200000000 1.0
C      1  0.5286870000000  0.5070730000000  0.5340870000000 1.0
C      1  0.4713510000000  0.4929010000000  0.5340900000000 1.0
C      1  0.4659330000000  0.5286550000000  0.4929200000000 1.0
C      1  0.4659340000000  0.4713190000000  0.5070930000000 1.0
C      1  0.5341020000000  0.5286550000000  0.5070880000000 1.0
C      1  0.5164400000000  0.4215910000000  0.5139480000000 1.0
C      1  0.5139570000000  0.5164060000000  0.4216080000000 1.0
C      1  0.4216230000000  0.5139290000000  0.5164290000000 1.0
C      1  0.4835970000000  0.5783830000000  0.5139470000000 1.0
C      1  0.4835970000000  0.4215910000000  0.4860640000000 1.0
C      1  0.5164370000000  0.5783830000000  0.4860600000000 1.0
C      1  0.4860710000000  0.4835650000000  0.4216100000000 1.0
C      1  0.4860780000000  0.5164090000000  0.5784010000000 1.0
C      1  0.5139650000000  0.4835670000000  0.5784000000000 1.0
C      1  0.5784150000000  0.4860450000000  0.5164220000000 1.0
C      1  0.5784130000000  0.5139300000000  0.4835800000000 1.0
C      1  0.4216210000000  0.4860430000000  0.4835880000000 1.0
C      1  0.5164390000000  0.4215910000000  0.4860620000000 1.0
C      1  0.5139640000000  0.5164090000000  0.5784000000000 1.0
C      1  0.4216210000000  0.5139290000000  0.4835870000000 1.0
C      1  0.4835960000000  0.5783820000000  0.4860610000000 1.0
C      1  0.4835980000000  0.4215910000000  0.5139500000000 1.0
C      1  0.5164390000000  0.5783830000000  0.5139460000000 1.0
C      1  0.4860790000000  0.4835670000000  0.5784010000000 1.0
C      1  0.4860710000000  0.5164060000000  0.4216090000000 1.0
C      1  0.5139570000000  0.4835650000000  0.4216090000000 1.0
C      1  0.5784130000000  0.4860440000000  0.4835810000000 1.0
C      1  0.5784140000000  0.5139310000000  0.5164220000000 1.0
C      1  0.4216230000000  0.4860440000000  0.5164290000000 1.0
C      1  0.5074060000000  0.4216910000000  0.4750270000000 1.0
C      1  0.4750350000000  0.5073740000000  0.4217100000000 1.0
C      1  0.4217230000000  0.4750070000000  0.5073970000000 1.0
C      1  0.4926270000000  0.5782820000000  0.4750250000000 1.0
C      1  0.4926310000000  0.4216910000000  0.5249850000000 1.0
C      1  0.5074070000000  0.5782830000000  0.5249820000000 1.0
C      1  0.5249930000000  0.4925970000000  0.4217080000000 1.0
C      1  0.5250000000000  0.5073770000000  0.5782990000000 1.0
C      1  0.4750420000000  0.4925990000000  0.5783020000000 1.0
C      1  0.5783140000000  0.5249670000000  0.5073890000000 1.0
C      1  0.5783140000000  0.4750080000000  0.4926130000000 1.0
C      1  0.4217220000000  0.5249650000000  0.4926190000000 1.0
C      1  0.5074080000000  0.4216920000000  0.5249850000000 1.0
C      1  0.4750420000000  0.5073770000000  0.5783020000000 1.0
C      1  0.4217220000000  0.4750070000000  0.4926200000000 1.0
C      1  0.4926300000000  0.5782830000000  0.5249830000000 1.0
C      1  0.4926290000000  0.4216910000000  0.4750270000000 1.0
C      1  0.5074050000000  0.5782820000000  0.4750240000000 1.0
C      1  0.5250010000000  0.4926000000000  0.5782990000000 1.0
C      1  0.5249930000000  0.5073750000000  0.4217080000000 1.0
C      1  0.4750350000000  0.4925970000000  0.4217100000000 1.0
C      1  0.5783130000000  0.5249660000000  0.4926120000000 1.0
C      1  0.5783140000000  0.4750080000000  0.5073900000000 1.0
C      1  0.4217220000000  0.5249650000000  0.5073970000000 1.0
C      1  0.5555890000000  0.5614780000000  0.4825100000000 1.0
C      1  0.4825290000000  0.5555600000000  0.5614960000000 1.0
C      1  0.5615120000000  0.4824970000000  0.5555750000000 1.0
C      1  0.4444450000000  0.4384950000000  0.4825170000000 1.0
C      1  0.4444460000000  0.5614780000000  0.5174980000000 1.0
C      1  0.5555920000000  0.4384960000000  0.5174950000000 1.0
C      1  0.5175130000000  0.4444150000000  0.5614960000000 1.0
C      1  0.5175060000000  0.5555590000000  0.4385120000000 1.0
C      1  0.4825240000000  0.4444130000000  0.4385150000000 1.0
C      1  0.4385290000000  0.5174790000000  0.5555800000000 1.0
C      1  0.4385240000000  0.4824940000000  0.4444350000000 1.0
C      1  0.5615070000000  0.5174780000000  0.4444290000000 1.0
C      1  0.5555910000000  0.5614790000000  0.5174930000000 1.0
C      1  0.4825230000000  0.5555580000000  0.4385130000000 1.0
C      1  0.5615070000000  0.4824950000000  0.4444300000000 1.0
C      1  0.4444470000000  0.4384950000000  0.5175000000000 1.0
C      1  0.4444440000000  0.5614780000000  0.4825150000000 1.0
C      1  0.5555900000000  0.4384960000000  0.4825120000000 1.0
C      1  0.5175070000000  0.4444130000000  0.4385130000000 1.0
C      1  0.5175120000000  0.5555610000000  0.5614950000000 1.0
C      1  0.4825300000000  0.4444150000000  0.5614980000000 1.0
C      1  0.4385240000000  0.5174770000000  0.4444350000000 1.0
C      1  0.4385290000000  0.4824960000000  0.5555800000000 1.0
C      1  0.5615120000000  0.5174800000000  0.5555740000000 1.0
C      1  0.4839570000000  0.5081790000000  0.4443880000000 1.0
C      1  0.4444010000000  0.4839280000000  0.5082010000000 1.0
C      1  0.5082110000000  0.4443690000000  0.4839470000000 1.0
C      1  0.5160740000000  0.4917930000000  0.4443860000000 1.0
C      1  0.5160790000000  0.5081810000000  0.5556220000000 1.0
C      1  0.4839620000000  0.4917940000000  0.5556230000000 1.0
C      1  0.5556360000000  0.5160460000000  0.5081950000000 1.0
C      1  0.5556350000000  0.4839280000000  0.4918090000000 1.0
C      1  0.4444000000000  0.5160450000000  0.4918140000000 1.0
C      1  0.4918230000000  0.5556040000000  0.4839450000000 1.0
C      1  0.4918260000000  0.4443690000000  0.5160650000000 1.0
C      1  0.5082110000000  0.5556050000000  0.5160620000000 1.0
C      1  0.4839620000000  0.5081810000000  0.5556230000000 1.0
C      1  0.4444000000000  0.4839280000000  0.4918140000000 1.0
C      1  0.5082120000000  0.4443690000000  0.5160640000000 1.0
C      1  0.5160790000000  0.4917950000000  0.5556220000000 1.0
C      1  0.5160740000000  0.5081790000000  0.4443860000000 1.0
C      1  0.4839570000000  0.4917930000000  0.4443880000000 1.0
C      1  0.5556350000000  0.5160460000000  0.4918090000000 1.0
C      1  0.5556360000000  0.4839290000000  0.5081960000000 1.0
C      1  0.4444000000000  0.5160450000000  0.5082000000000 1.0
C      1  0.4918250000000  0.5556050000000  0.5160630000000 1.0
C      1  0.4918240000000  0.4443690000000  0.4839470000000 1.0
C      1  0.5082100000000  0.5556040000000  0.4839450000000 1.0
C      1  0.4842930000000  0.4720410000000  0.5389650000000 1.0
C      1  0.5389750000000  0.4842600000000  0.4720570000000 1.0
C      1  0.4720710000000  0.5389450000000  0.4842780000000 1.0
C      1  0.5157470000000  0.5279340000000  0.5389620000000 1.0
C      1  0.5157430000000  0.4720400000000  0.4610460000000 1.0
C      1  0.4842890000000  0.5279320000000  0.4610460000000 1.0
C      1  0.4610580000000  0.5157130000000  0.4720600000000 1.0
C      1  0.4610610000000  0.4842600000000  0.5279530000000 1.0
C      1  0.5389780000000  0.5157150000000  0.5279490000000 1.0
C      1  0.5279640000000  0.4610280000000  0.4842770000000 1.0
C      1  0.5279640000000  0.5389460000000  0.5157300000000 1.0
C      1  0.4720730000000  0.4610280000000  0.5157340000000 1.0
C      1  0.4842890000000  0.4720400000000  0.4610470000000 1.0
C      1  0.5389780000000  0.4842610000000  0.5279490000000 1.0
C      1  0.4720720000000  0.5389460000000  0.5157320000000 1.0
C      1  0.5157430000000  0.5279330000000  0.4610450000000 1.0
C      1  0.5157470000000  0.4720410000000  0.5389630000000 1.0
C      1  0.4842920000000  0.5279340000000  0.5389640000000 1.0
C      1  0.4610600000000  0.5157140000000  0.5279520000000 1.0
C      1  0.4610580000000  0.4842590000000  0.4720610000000 1.0
C      1  0.5389750000000  0.5157140000000  0.4720560000000 1.0
C      1  0.5279650000000  0.4610290000000  0.5157310000000 1.0
C      1  0.5279630000000  0.5389450000000  0.4842760000000 1.0
C      1  0.4720710000000  0.4610280000000  0.4842800000000 1.0
C      1  0.4518310000000  0.4467920000000  0.5235070000000 1.0
C      1  0.5235160000000  0.4517980000000  0.4468100000000 1.0
C      1  0.4468210000000  0.5234850000000  0.4518190000000 1.0
C      1  0.5482070000000  0.5531820000000  0.5235010000000 1.0
C      1  0.5482050000000  0.4467920000000  0.4765040000000 1.0
C      1  0.4518280000000  0.5531810000000  0.4765060000000 1.0
C      1  0.4765150000000  0.5481740000000  0.4468100000000 1.0
C      1  0.4765210000000  0.4517990000000  0.5532010000000 1.0
C      1  0.5235200000000  0.5481760000000  0.5531980000000 1.0
C      1  0.5532110000000  0.4764870000000  0.4518150000000 1.0
C      1  0.5532150000000  0.5234880000000  0.5481900000000 1.0
C      1  0.4468260000000  0.4764870000000  0.5481960000000 1.0
C      1  0.4518290000000  0.4467910000000  0.4765080000000 1.0
C      1  0.5235200000000  0.4518000000000  0.5531990000000 1.0
C      1  0.4468250000000  0.5234870000000  0.5481950000000 1.0
C      1  0.5482040000000  0.5531820000000  0.4765020000000 1.0
C      1  0.5482070000000  0.4467930000000  0.5235030000000 1.0
C      1  0.4518300000000  0.5531820000000  0.5235060000000 1.0
C      1  0.4765200000000  0.5481760000000  0.5532000000000 1.0
C      1  0.4765160000000  0.4517980000000  0.4468120000000 1.0
C      1  0.5235150000000  0.5481740000000  0.4468080000000 1.0
C      1  0.5532150000000  0.4764880000000  0.5481910000000 1.0
C      1  0.5532100000000  0.5234860000000  0.4518140000000 1.0
C      1  0.4468210000000  0.4764860000000  0.4518190000000 1.0
C      1  0.4578320000000  0.4813010000000  0.5141510000000 1.0
C      1  0.5141620000000  0.4578000000000  0.4813190000000 1.0
C      1  0.4813300000000  0.5141300000000  0.4578190000000 1.0
C      1  0.5422050000000  0.5186730000000  0.5141470000000 1.0
C      1  0.5422040000000  0.4813010000000  0.4858590000000 1.0
C      1  0.4578300000000  0.5186720000000  0.4858620000000 1.0
C      1  0.4858720000000  0.5421730000000  0.4813190000000 1.0
C      1  0.4858750000000  0.4578000000000  0.5186920000000 1.0
C      1  0.5141630000000  0.5421740000000  0.5186890000000 1.0
C      1  0.5187020000000  0.4858420000000  0.4578170000000 1.0
C      1  0.5187050000000  0.5141320000000  0.5421900000000 1.0
C      1  0.4813340000000  0.4858430000000  0.5421920000000 1.0
C      1  0.4578310000000  0.4813010000000  0.4858630000000 1.0
C      1  0.5141630000000  0.4578010000000  0.5186900000000 1.0
C      1  0.4813340000000  0.5141320000000  0.5421920000000 1.0
C      1  0.5422040000000  0.5186730000000  0.4858580000000 1.0
C      1  0.5422050000000  0.4813020000000  0.5141470000000 1.0
C      1  0.4578320000000  0.5186720000000  0.5141510000000 1.0
C      1  0.4858740000000  0.5421740000000  0.5186900000000 1.0
C      1  0.4858730000000  0.4578000000000  0.4813200000000 1.0
C      1  0.5141610000000  0.5421730000000  0.4813180000000 1.0
C      1  0.5187060000000  0.4858430000000  0.5421910000000 1.0
C      1  0.5187020000000  0.5141310000000  0.4578170000000 1.0
C      1  0.4813300000000  0.4858420000000  0.4578190000000 1.0
C      1  0.4357500000000  0.5291230000000  0.5073020000000 1.0
C      1  0.5073140000000  0.4357190000000  0.5291420000000 1.0
C      1  0.5291510000000  0.5072810000000  0.4357350000000 1.0
C      1  0.5642860000000  0.4708510000000  0.5072970000000 1.0
C      1  0.5642850000000  0.5291230000000  0.4927070000000 1.0
C      1  0.4357500000000  0.4708500000000  0.4927140000000 1.0
C      1  0.4927240000000  0.5642550000000  0.5291400000000 1.0
C      1  0.4927220000000  0.4357180000000  0.4708700000000 1.0
C      1  0.5073110000000  0.5642540000000  0.4708670000000 1.0
C      1  0.4708790000000  0.4926910000000  0.4357380000000 1.0
C      1  0.4708850000000  0.5072820000000  0.5642740000000 1.0
C      1  0.5291570000000  0.4926940000000  0.5642720000000 1.0
C      1  0.4357490000000  0.5291220000000  0.4927130000000 1.0
C      1  0.5073120000000  0.4357180000000  0.4708690000000 1.0
C      1  0.5291570000000  0.5072830000000  0.5642710000000 1.0
C      1  0.5642860000000  0.4708510000000  0.4927080000000 1.0
C      1  0.5642860000000  0.5291240000000  0.5072960000000 1.0
C      1  0.4357500000000  0.4708500000000  0.5073030000000 1.0
C      1  0.4927210000000  0.5642540000000  0.4708680000000 1.0
C      1  0.4927250000000  0.4357190000000  0.5291420000000 1.0
C      1  0.5073130000000  0.5642550000000  0.5291400000000 1.0
C      1  0.4708850000000  0.4926930000000  0.5642740000000 1.0
C      1  0.4708790000000  0.5072800000000  0.4357380000000 1.0
C      1  0.5291510000000  0.4926910000000  0.4357360000000 1.0
C      1  0.5663540000000  0.5063740000000  0.5605380000000 1.0
C      1  0.5605540000000  0.5663210000000  0.5063870000000 1.0
C      1  0.5064070000000  0.5605240000000  0.5663370000000 1.0
C      1  0.4336870000000  0.4936010000000  0.5605440000000 1.0
C      1  0.4336810000000  0.5063710000000  0.4394710000000 1.0
C      1  0.5663490000000  0.4936000000000  0.4394650000000 1.0
C      1  0.4394820000000  0.4336530000000  0.5063950000000 1.0
C      1  0.4394810000000  0.5663200000000  0.4936200000000 1.0
C      1  0.5605550000000  0.4336530000000  0.4936170000000 1.0
C      1  0.4936350000000  0.4394510000000  0.5663400000000 1.0
C      1  0.4936280000000  0.5605220000000  0.4336700000000 1.0
C      1  0.5064010000000  0.4394490000000  0.4336720000000 1.0
C      1  0.5663490000000  0.5063730000000  0.4394650000000 1.0
C      1  0.5605540000000  0.5663210000000  0.4936150000000 1.0
C      1  0.5064000000000  0.5605220000000  0.4336700000000 1.0
C      1  0.4336810000000  0.4935990000000  0.4394710000000 1.0
C      1  0.4336870000000  0.5063730000000  0.5605440000000 1.0
C      1  0.5663550000000  0.4936020000000  0.5605380000000 1.0
C      1  0.4394820000000  0.4336520000000  0.4936220000000 1.0
C      1  0.4394810000000  0.5663200000000  0.5063930000000 1.0
C      1  0.5605550000000  0.4336540000000  0.5063890000000 1.0
C      1  0.4936290000000  0.4394490000000  0.4336720000000 1.0
C      1  0.4936340000000  0.5605240000000  0.5663380000000 1.0
C      1  0.5064070000000  0.4394520000000  0.5663390000000 1.0
C      1  0.5063640000000  0.4782380000000  0.4111200000000 1.0
C      1  0.4111320000000  0.5063360000000  0.4782610000000 1.0
C      1  0.4782710000000  0.4111020000000  0.5063570000000 1.0
C      1  0.4936640000000  0.5217330000000  0.4111200000000 1.0
C      1  0.4936720000000  0.4782410000000  0.5888900000000 1.0
C      1  0.5063720000000  0.5217360000000  0.5888890000000 1.0
C      1  0.5889020000000  0.4936370000000  0.4782530000000 1.0
C      1  0.5889040000000  0.5063380000000  0.5217480000000 1.0
C      1  0.4111340000000  0.4936370000000  0.5217570000000 1.0
C      1  0.5217650000000  0.5888720000000  0.5063520000000 1.0
C      1  0.5217660000000  0.4111020000000  0.4936550000000 1.0
C      1  0.4782690000000  0.5888720000000  0.4936540000000 1.0
C      1  0.5063720000000  0.4782410000000  0.5888900000000 1.0
C      1  0.4111340000000  0.5063360000000  0.5217560000000 1.0
C      1  0.4782710000000  0.4111010000000  0.4936570000000 1.0
C      1  0.4936720000000  0.5217360000000  0.5888900000000 1.0
C      1  0.4936640000000  0.4782380000000  0.4111200000000 1.0
C      1  0.5063630000000  0.5217330000000  0.4111190000000 1.0
C      1  0.5889040000000  0.4936380000000  0.5217480000000 1.0
C      1  0.5889020000000  0.5063370000000  0.4782530000000 1.0
C      1  0.4111320000000  0.4936360000000  0.4782610000000 1.0
C      1  0.5217650000000  0.5888720000000  0.4936530000000 1.0
C      1  0.5217670000000  0.4111020000000  0.5063550000000 1.0
C      1  0.4782700000000  0.5888720000000  0.5063540000000 1.0
C      1  0.4930480000000  0.4852810000000  0.4342550000000 1.0
C      1  0.4342670000000  0.4930190000000  0.4853030000000 1.0
C      1  0.4853130000000  0.4342360000000  0.4930390000000 1.0
C      1  0.5069820000000  0.5146910000000  0.4342540000000 1.0
C      1  0.5069880000000  0.4852830000000  0.5657550000000 1.0
C      1  0.4930540000000  0.5146930000000  0.5657550000000 1.0
C      1  0.5657680000000  0.5069540000000  0.4852960000000 1.0
C      1  0.5657690000000  0.4930200000000  0.5147070000000 1.0
C      1  0.4342680000000  0.5069540000000  0.5147130000000 1.0
C      1  0.5147220000000  0.5657370000000  0.4930360000000 1.0
C      1  0.5147240000000  0.4342370000000  0.5069720000000 1.0
C      1  0.4853120000000  0.5657370000000  0.5069720000000 1.0
C      1  0.4930540000000  0.4852830000000  0.5657560000000 1.0
C      1  0.4342680000000  0.4930190000000  0.5147130000000 1.0
C      1  0.4853130000000  0.4342360000000  0.5069740000000 1.0
C      1  0.5069880000000  0.5146930000000  0.5657550000000 1.0
C      1  0.5069820000000  0.4852810000000  0.4342540000000 1.0
C      1  0.4930480000000  0.5146910000000  0.4342540000000 1.0
C      1  0.5657690000000  0.5069550000000  0.5147070000000 1.0
C      1  0.5657680000000  0.4930200000000  0.4852970000000 1.0
C      1  0.4342670000000  0.5069530000000  0.4853020000000 1.0
C      1  0.5147230000000  0.5657370000000  0.5069700000000 1.0
C      1  0.5147230000000  0.4342360000000  0.4930380000000 1.0
C      1  0.4853120000000  0.5657370000000  0.4930370000000 1.0
C      1  0.4554350000000  0.5255230000000  0.5380440000000 1.0
C      1  0.5380570000000  0.4554030000000  0.5255390000000 1.0
C      1  0.5255510000000  0.5380240000000  0.4554190000000 1.0
C      1  0.5446040000000  0.4744520000000  0.5380400000000 1.0
C      1  0.5446000000000  0.5255220000000  0.4619650000000 1.0
C      1  0.4554320000000  0.4744500000000  0.4619700000000 1.0
C      1  0.4619810000000  0.5445710000000  0.5255410000000 1.0
C      1  0.4619800000000  0.4554020000000  0.4744720000000 1.0
C      1  0.5380540000000  0.5445710000000  0.4744670000000 1.0
C      1  0.4744810000000  0.4619490000000  0.4554220000000 1.0
C      1  0.4744840000000  0.5380250000000  0.5445890000000 1.0
C      1  0.5255560000000  0.4619510000000  0.5445880000000 1.0
C      1  0.4554320000000  0.5255210000000  0.4619690000000 1.0
C      1  0.5380540000000  0.4554030000000  0.4744680000000 1.0
C      1  0.5255550000000  0.5380250000000  0.5445870000000 1.0
C      1  0.5446010000000  0.4744510000000  0.4619660000000 1.0
C      1  0.5446040000000  0.5255230000000  0.5380400000000 1.0
C      1  0.4554360000000  0.4744520000000  0.5380440000000 1.0
C      1  0.4619790000000  0.5445700000000  0.4744700000000 1.0
C      1  0.4619820000000  0.4554030000000  0.5255430000000 1.0
C      1  0.5380560000000  0.5445720000000  0.5255380000000 1.0
C      1  0.4744850000000  0.4619500000000  0.5445910000000 1.0
C      1  0.4744800000000  0.5380230000000  0.4554210000000 1.0
C      1  0.5255520000000  0.4619490000000  0.4554200000000 1.0
C      1  0.4624860000000  0.5375160000000  0.4624760000000 1.0
C      1  0.4624900000000  0.4624580000000  0.5375370000000 1.0
C      1  0.5375460000000  0.4624570000000  0.4624740000000 1.0
C      1  0.5375500000000  0.4624580000000  0.5375330000000 1.0
C      1  0.4624900000000  0.5375170000000  0.5375350000000 1.0
C      1  0.5375460000000  0.5375160000000  0.4624730000000 1.0
C      1  0.5375490000000  0.5375170000000  0.5375320000000 1.0
C      1  0.4624870000000  0.4624560000000  0.4624770000000 1.0
END
