TITL C-358536-5352-2 -0.0128725523272163 1000000 -1634.12392880005 0 0 240 (C1) n - 1
REM
REM in /home/nfs/bkarasulu/CARBON/AIRSS/Generating-Clusters/GAP-ML-2020/Higher-Symm/Selected-Sizes/Larger-Clusters/Only-C240
REM
REM
REM
REM
REM
REM ./C.cell (db1db5b03a21c153a00b653f6831bbfd)
REM
REM compiler GCC version 9.2.1 20190827 (Red Hat 9.2.1-1)
REM options -cpp -mtune=generic -march=x86-64 -g -O0 -fpre-include=/usr/include/finclude/math-vector-fortran.h
REM seed 564788206 -1983257392 -523905023 -1847928786 -794601608 681433049 663854901 -1932305209 -548093091 1757663741 -1315281523 610787235 -770867746 89534375 1909488099 1707509310 -1085894799 -45334643 1927563200 -1713122154 -2022043623 559574250 600022153 -304185031 -1735513598 -701659483 -599300383 -181397750 2127750453 726295948 -51915818 -2088537883 1232566128
REM
CELL 1.54180  100.00000  100.00000  100.00000   90.00000   90.00000   90.00000
LATT -1
SFAC C  
C      1  0.4418210000000  0.4931820000000  0.5297740000000 1.0
C      1  0.4418100000000  0.4931460000000  0.4708830000000 1.0
C      1  0.5767360000000  0.4729660000000  0.5109760000000 1.0
C      1  0.5763220000000  0.4738670000000  0.4826090000000 1.0
C      1  0.5473370000000  0.4884340000000  0.5169690000000 1.0
C      1  0.5526060000000  0.4908630000000  0.4845310000000 1.0
C      1  0.4997600000000  0.4483340000000  0.5545490000000 1.0
C      1  0.4975420000000  0.4485970000000  0.4441970000000 1.0
C      1  0.4747920000000  0.5233070000000  0.4500490000000 1.0
C      1  0.4742670000000  0.5237800000000  0.5500240000000 1.0
C      1  0.5657360000000  0.4969580000000  0.4864610000000 1.0
C      1  0.5548610000000  0.4973350000000  0.5246250000000 1.0
C      1  0.5221020000000  0.4452100000000  0.4525600000000 1.0
C      1  0.5244700000000  0.4456060000000  0.5447070000000 1.0
C      1  0.4959210000000  0.5008070000000  0.5081080000000 1.0
C      1  0.4953750000000  0.5009500000000  0.4926400000000 1.0
C      1  0.5122060000000  0.4737440000000  0.5326560000000 1.0
C      1  0.5113350000000  0.4730810000000  0.4677560000000 1.0
C      1  0.5361350000000  0.5397160000000  0.5408670000000 1.0
C      1  0.5376630000000  0.5370490000000  0.4630300000000 1.0
C      1  0.5155730000000  0.5017360000000  0.4220040000000 1.0
C      1  0.5135860000000  0.5062510000000  0.5810980000000 1.0
C      1  0.5345660000000  0.5268180000000  0.4321490000000 1.0
C      1  0.5305600000000  0.5324740000000  0.5729580000000 1.0
C      1  0.5123300000000  0.4794590000000  0.5454510000000 1.0
C      1  0.5093650000000  0.4790110000000  0.4553370000000 1.0
C      1  0.5106280000000  0.4740370000000  0.4939030000000 1.0
C      1  0.5107940000000  0.4741350000000  0.5064350000000 1.0
C      1  0.4456630000000  0.5489100000000  0.4691790000000 1.0
C      1  0.4455030000000  0.5497010000000  0.5303090000000 1.0
C      1  0.4361860000000  0.5255370000000  0.5275370000000 1.0
C      1  0.4358510000000  0.5252100000000  0.4725910000000 1.0
C      1  0.5324960000000  0.4372310000000  0.5364770000000 1.0
C      1  0.5308620000000  0.4370030000000  0.4601440000000 1.0
C      1  0.4523920000000  0.4648120000000  0.4389530000000 1.0
C      1  0.4543050000000  0.4640180000000  0.5618510000000 1.0
C      1  0.5521770000000  0.4606540000000  0.4572530000000 1.0
C      1  0.5544350000000  0.4599110000000  0.5379730000000 1.0
C      1  0.5301630000000  0.5726730000000  0.5276920000000 1.0
C      1  0.5323820000000  0.5708610000000  0.4735380000000 1.0
C      1  0.5647980000000  0.4712340000000  0.4745610000000 1.0
C      1  0.5653270000000  0.4702120000000  0.5195650000000 1.0
C      1  0.4599500000000  0.5508170000000  0.5292690000000 1.0
C      1  0.4602110000000  0.5498630000000  0.4701600000000 1.0
C      1  0.5237590000000  0.5641050000000  0.5193350000000 1.0
C      1  0.5246550000000  0.5629940000000  0.4813980000000 1.0
C      1  0.4630240000000  0.4562150000000  0.5542120000000 1.0
C      1  0.4612300000000  0.4568450000000  0.4463740000000 1.0
C      1  0.4356800000000  0.5394580000000  0.5323370000000 1.0
C      1  0.4355320000000  0.5389280000000  0.4674750000000 1.0
C      1  0.5425420000000  0.4929660000000  0.4940940000000 1.0
C      1  0.5384320000000  0.4938070000000  0.5061020000000 1.0
C      1  0.5276130000000  0.5392850000000  0.5629040000000 1.0
C      1  0.5309750000000  0.5355540000000  0.4403950000000 1.0
C      1  0.4920290000000  0.4606990000000  0.5754800000000 1.0
C      1  0.4887310000000  0.4609660000000  0.4234500000000 1.0
C      1  0.4612190000000  0.4461830000000  0.4696940000000 1.0
C      1  0.4621990000000  0.4459870000000  0.5307280000000 1.0
C      1  0.4403690000000  0.4904370000000  0.4934220000000 1.0
C      1  0.4404120000000  0.4904690000000  0.5072200000000 1.0
C      1  0.5432950000000  0.4612040000000  0.5427030000000 1.0
C      1  0.5405860000000  0.4613440000000  0.4534510000000 1.0
C      1  0.5542820000000  0.5032720000000  0.5594820000000 1.0
C      1  0.5540990000000  0.4924170000000  0.4436340000000 1.0
C      1  0.5094530000000  0.5600890000000  0.5225090000000 1.0
C      1  0.5103120000000  0.5596370000000  0.4774350000000 1.0
C      1  0.4281780000000  0.5370440000000  0.5069330000000 1.0
C      1  0.4281970000000  0.5369720000000  0.4930500000000 1.0
C      1  0.4300230000000  0.4993990000000  0.4871250000000 1.0
C      1  0.4301390000000  0.4995470000000  0.5134180000000 1.0
C      1  0.4682200000000  0.4893660000000  0.5432830000000 1.0
C      1  0.4679070000000  0.4891850000000  0.4571900000000 1.0
C      1  0.4427220000000  0.5158440000000  0.5333990000000 1.0
C      1  0.4425680000000  0.5156340000000  0.4668230000000 1.0
C      1  0.5113000000000  0.5160640000000  0.4784170000000 1.0
C      1  0.5125450000000  0.5164750000000  0.5214000000000 1.0
C      1  0.4502150000000  0.5772260000000  0.4918480000000 1.0
C      1  0.4499680000000  0.5775510000000  0.5067620000000 1.0
C      1  0.4798410000000  0.5785460000000  0.4857740000000 1.0
C      1  0.4794870000000  0.5788180000000  0.5127390000000 1.0
C      1  0.4631200000000  0.4401860000000  0.5192790000000 1.0
C      1  0.4622260000000  0.4402790000000  0.4810900000000 1.0
C      1  0.5354570000000  0.4902020000000  0.4274610000000 1.0
C      1  0.5356970000000  0.4993270000000  0.5764900000000 1.0
C      1  0.4743980000000  0.4551290000000  0.4422760000000 1.0
C      1  0.4763990000000  0.4544870000000  0.5580290000000 1.0
C      1  0.5071080000000  0.5510640000000  0.4658080000000 1.0
C      1  0.5058250000000  0.5518160000000  0.5342610000000 1.0
C      1  0.4856850000000  0.4674300000000  0.5436900000000 1.0
C      1  0.4850560000000  0.4673090000000  0.4564370000000 1.0
C      1  0.4588390000000  0.4510210000000  0.4582440000000 1.0
C      1  0.4602300000000  0.4506050000000  0.5423540000000 1.0
C      1  0.4981390000000  0.5235710000000  0.5705290000000 1.0
C      1  0.5008830000000  0.5207010000000  0.4305840000000 1.0
C      1  0.5481750000000  0.5423160000000  0.5189230000000 1.0
C      1  0.5489400000000  0.5396320000000  0.4854750000000 1.0
C      1  0.4484600000000  0.4868050000000  0.5186630000000 1.0
C      1  0.4484140000000  0.4868250000000  0.4820050000000 1.0
C      1  0.4698230000000  0.4808200000000  0.5315190000000 1.0
C      1  0.4695290000000  0.4805830000000  0.4689630000000 1.0
C      1  0.4832030000000  0.5451140000000  0.5438830000000 1.0
C      1  0.4853560000000  0.5442420000000  0.4548930000000 1.0
C      1  0.4302400000000  0.5245610000000  0.5140410000000 1.0
C      1  0.4300570000000  0.5243920000000  0.4861290000000 1.0
C      1  0.5136830000000  0.5456250000000  0.5433150000000 1.0
C      1  0.5155320000000  0.5440630000000  0.4577650000000 1.0
C      1  0.5757020000000  0.4864330000000  0.4904310000000 1.0
C      1  0.5789420000000  0.4844370000000  0.5035640000000 1.0
C      1  0.5458640000000  0.4699730000000  0.4908500000000 1.0
C      1  0.5462310000000  0.4696160000000  0.5036190000000 1.0
C      1  0.5472040000000  0.4995330000000  0.5692750000000 1.0
C      1  0.5464620000000  0.4873840000000  0.4349560000000 1.0
C      1  0.5272070000000  0.4589220000000  0.4514030000000 1.0
C      1  0.5301740000000  0.4591680000000  0.5457960000000 1.0
C      1  0.4918080000000  0.5733570000000  0.4923090000000 1.0
C      1  0.4914760000000  0.5733580000000  0.5065780000000 1.0
C      1  0.5837310000000  0.4628900000000  0.5038890000000 1.0
C      1  0.5831200000000  0.4632260000000  0.4890750000000 1.0
C      1  0.4617650000000  0.5648450000000  0.5247940000000 1.0
C      1  0.4623180000000  0.5639550000000  0.4743050000000 1.0
C      1  0.4683600000000  0.4778270000000  0.4930570000000 1.0
C      1  0.4684470000000  0.4779310000000  0.5075460000000 1.0
C      1  0.5089390000000  0.4438130000000  0.4494590000000 1.0
C      1  0.5114080000000  0.4446000000000  0.5487420000000 1.0
C      1  0.4822800000000  0.4649920000000  0.5667670000000 1.0
C      1  0.4803580000000  0.4653580000000  0.4334830000000 1.0
C      1  0.4846680000000  0.5332050000000  0.4468210000000 1.0
C      1  0.4830900000000  0.5346980000000  0.5527740000000 1.0
C      1  0.4615230000000  0.4817620000000  0.4812690000000 1.0
C      1  0.4616360000000  0.4818800000000  0.5193240000000 1.0
C      1  0.4866280000000  0.5622920000000  0.5262520000000 1.0
C      1  0.4875530000000  0.5617490000000  0.4727320000000 1.0
C      1  0.5269160000000  0.4881370000000  0.5794090000000 1.0
C      1  0.5249890000000  0.4805220000000  0.4234660000000 1.0
C      1  0.5431620000000  0.5482390000000  0.4940330000000 1.0
C      1  0.5428720000000  0.5493230000000  0.5088980000000 1.0
C      1  0.4829970000000  0.4785490000000  0.4928270000000 1.0
C      1  0.4831080000000  0.4785900000000  0.5076980000000 1.0
C      1  0.4858030000000  0.4538430000000  0.4515040000000 1.0
C      1  0.4875590000000  0.4538680000000  0.5481770000000 1.0
C      1  0.4656700000000  0.5422720000000  0.4807400000000 1.0
C      1  0.4655080000000  0.5428100000000  0.5190060000000 1.0
C      1  0.5679700000000  0.4462310000000  0.5237110000000 1.0
C      1  0.5660770000000  0.4468880000000  0.4705690000000 1.0
C      1  0.5807230000000  0.4488890000000  0.4892320000000 1.0
C      1  0.5812220000000  0.4486480000000  0.5037290000000 1.0
C      1  0.5395440000000  0.4263150000000  0.5126630000000 1.0
C      1  0.5385870000000  0.4260680000000  0.4834440000000 1.0
C      1  0.4757330000000  0.4862440000000  0.4460620000000 1.0
C      1  0.4762540000000  0.4863590000000  0.5543910000000 1.0
C      1  0.5061700000000  0.4736970000000  0.5197170000000 1.0
C      1  0.5059030000000  0.4737070000000  0.4807600000000 1.0
C      1  0.4918480000000  0.4773280000000  0.5208560000000 1.0
C      1  0.4916500000000  0.4775350000000  0.4795170000000 1.0
C      1  0.5276810000000  0.5109060000000  0.5815070000000 1.0
C      1  0.5302420000000  0.5035300000000  0.4247500000000 1.0
C      1  0.5276250000000  0.5391340000000  0.4533850000000 1.0
C      1  0.5252500000000  0.5414770000000  0.5493810000000 1.0
C      1  0.5062460000000  0.5108930000000  0.4241410000000 1.0
C      1  0.5035520000000  0.5139740000000  0.5770990000000 1.0
C      1  0.4612080000000  0.5021920000000  0.4579340000000 1.0
C      1  0.4612480000000  0.5022550000000  0.5425300000000 1.0
C      1  0.4887880000000  0.4904330000000  0.4863790000000 1.0
C      1  0.4892490000000  0.4903290000000  0.5143250000000 1.0
C      1  0.5319350000000  0.4315410000000  0.5246720000000 1.0
C      1  0.5303460000000  0.4312720000000  0.4719520000000 1.0
C      1  0.4979750000000  0.4517800000000  0.5680670000000 1.0
C      1  0.4955870000000  0.4531560000000  0.4311070000000 1.0
C      1  0.5662990000000  0.5101990000000  0.4903610000000 1.0
C      1  0.5599260000000  0.5089130000000  0.5226160000000 1.0
C      1  0.4754290000000  0.5687940000000  0.4757820000000 1.0
C      1  0.4748310000000  0.5695640000000  0.5230190000000 1.0
C      1  0.5192470000000  0.4310200000000  0.5162520000000 1.0
C      1  0.5182810000000  0.4312140000000  0.4810440000000 1.0
C      1  0.5268660000000  0.4255580000000  0.5053290000000 1.0
C      1  0.5263860000000  0.4255080000000  0.4915520000000 1.0
C      1  0.4288110000000  0.5123710000000  0.5071530000000 1.0
C      1  0.4286990000000  0.5122920000000  0.4932060000000 1.0
C      1  0.4281660000000  0.4963460000000  0.4737290000000 1.0
C      1  0.4282580000000  0.4966040000000  0.5268370000000 1.0
C      1  0.5072920000000  0.4372250000000  0.5157070000000 1.0
C      1  0.5065920000000  0.4378150000000  0.4822410000000 1.0
C      1  0.4503820000000  0.5671310000000  0.4823370000000 1.0
C      1  0.4498940000000  0.5677460000000  0.5166510000000 1.0
C      1  0.4827690000000  0.4738230000000  0.5313650000000 1.0
C      1  0.4825460000000  0.4736700000000  0.4689870000000 1.0
C      1  0.5530260000000  0.4769320000000  0.4808500000000 1.0
C      1  0.5520840000000  0.4750790000000  0.5147370000000 1.0
C      1  0.4822980000000  0.4749520000000  0.4439120000000 1.0
C      1  0.4823690000000  0.4747230000000  0.5561830000000 1.0
C      1  0.4721920000000  0.5889430000000  0.5065640000000 1.0
C      1  0.4723270000000  0.5886920000000  0.4916820000000 1.0
C      1  0.4459610000000  0.4748090000000  0.4352460000000 1.0
C      1  0.4474240000000  0.4738730000000  0.5651990000000 1.0
C      1  0.5643840000000  0.4314480000000  0.4899620000000 1.0
C      1  0.5648920000000  0.4313770000000  0.5042210000000 1.0
C      1  0.4234750000000  0.5454480000000  0.4712210000000 1.0
C      1  0.4234590000000  0.5456570000000  0.5286760000000 1.0
C      1  0.4486100000000  0.5039810000000  0.5366270000000 1.0
C      1  0.4486020000000  0.5038660000000  0.4638830000000 1.0
C      1  0.4406360000000  0.5570250000000  0.4798860000000 1.0
C      1  0.4402530000000  0.5575740000000  0.5195140000000 1.0
C      1  0.5148690000000  0.4918910000000  0.5815480000000 1.0
C      1  0.5143770000000  0.4871290000000  0.4200980000000 1.0
C      1  0.5183390000000  0.4689710000000  0.4561010000000 1.0
C      1  0.5211320000000  0.4695320000000  0.5430040000000 1.0
C      1  0.4917350000000  0.5316620000000  0.5631400000000 1.0
C      1  0.4938210000000  0.5288070000000  0.4373410000000 1.0
C      1  0.5626960000000  0.4593440000000  0.4663740000000 1.0
C      1  0.5643250000000  0.4585510000000  0.5280700000000 1.0
C      1  0.4682360000000  0.5134890000000  0.4531780000000 1.0
C      1  0.4681420000000  0.5136350000000  0.5471210000000 1.0
C      1  0.5311730000000  0.5237470000000  0.5823970000000 1.0
C      1  0.5362280000000  0.5151720000000  0.4271370000000 1.0
C      1  0.5315700000000  0.5588280000000  0.5079120000000 1.0
C      1  0.5318090000000  0.5579700000000  0.4933480000000 1.0
C      1  0.5506710000000  0.4260980000000  0.4901420000000 1.0
C      1  0.5511620000000  0.4261230000000  0.5051110000000 1.0
C      1  0.4996370000000  0.4410720000000  0.4927420000000 1.0
C      1  0.4998590000000  0.4409350000000  0.5057080000000 1.0
C      1  0.4658810000000  0.5410400000000  0.4932790000000 1.0
C      1  0.4656810000000  0.5409750000000  0.5065350000000 1.0
C      1  0.4580890000000  0.5892060000000  0.4913520000000 1.0
C      1  0.4579220000000  0.5894890000000  0.5067940000000 1.0
C      1  0.5203930000000  0.5131270000000  0.4697980000000 1.0
C      1  0.5195600000000  0.5149270000000  0.5320510000000 1.0
C      1  0.5666310000000  0.5170270000000  0.5011510000000 1.0
C      1  0.5647710000000  0.5181200000000  0.5142300000000 1.0
C      1  0.5028510000000  0.5099100000000  0.4858120000000 1.0
C      1  0.5041510000000  0.5095910000000  0.5144580000000 1.0
C      1  0.4907290000000  0.5526030000000  0.5356930000000 1.0
C      1  0.4921430000000  0.5519790000000  0.4635140000000 1.0
C      1  0.4285170000000  0.5489520000000  0.4840380000000 1.0
C      1  0.4283270000000  0.5491180000000  0.5157510000000 1.0
C      1  0.5723280000000  0.4409010000000  0.5116930000000 1.0
C      1  0.5713020000000  0.4410490000000  0.4819930000000 1.0
C      1  0.4973610000000  0.5652880000000  0.5172370000000 1.0
C      1  0.4980150000000  0.5650530000000  0.4820290000000 1.0
C      1  0.5442450000000  0.5365300000000  0.4735290000000 1.0
C      1  0.5434460000000  0.5397090000000  0.5308860000000 1.0
END
