TITL C-358538-2927-2 80.352687037136 1000000 -3694.40788203245 0 0 520 (C1) n - 1
REM
REM in /home/nfs/bkarasulu/CARBON/AIRSS/Generating-Clusters/GAP-ML-2020/Higher-Symm/Selected-Sizes/Larger-Clusters/Only-C240
REM
REM
REM
REM
REM
REM ./C.cell (db1db5b03a21c153a00b653f6831bbfd)
REM
REM compiler GCC version 9.2.1 20190827 (Red Hat 9.2.1-1)
REM options -cpp -mtune=generic -march=x86-64 -g -O0 -fpre-include=/usr/include/finclude/math-vector-fortran.h
REM seed -2039526715 -611898426 -1118955734 863881374 -1106882859 -2054188094 -1020016947 -1477655939 -1972047216 -95229077 -588268936 -1670136901 1812780908 1563547045 1970373373 1881609748 2090558869 -316344904 -249866949 249461166 1537052602 186888014 -1044205467 1719544951 965932219 -542723507 1910643870 -1329822517 -1398405983 -1748841860 -1238744967 739422249 -18909298
REM
CELL 1.54180  100.00000  100.00000  100.00000   90.00000   90.00000   90.00000
LATT -1
SFAC C  
C      1  0.5185410000000  0.4771480000000  0.4465720000000 1.0
C      1  0.4814680000000  0.4771410000000  0.4465720000000 1.0
C      1  0.4310140000000  0.4756300000000  0.5211950000000 1.0
C      1  0.5689940000000  0.4755990000000  0.5211930000000 1.0
C      1  0.5187110000000  0.4944290000000  0.5521630000000 1.0
C      1  0.4813010000000  0.4944380000000  0.5521590000000 1.0
C      1  0.4852510000000  0.4549280000000  0.5298830000000 1.0
C      1  0.5147510000000  0.4549240000000  0.5298790000000 1.0
C      1  0.5416360000000  0.4850740000000  0.5715350000000 1.0
C      1  0.4583650000000  0.4851070000000  0.5715280000000 1.0
C      1  0.5291420000000  0.5196780000000  0.5798160000000 1.0
C      1  0.4708730000000  0.5197110000000  0.5797920000000 1.0
C      1  0.4919370000000  0.4722400000000  0.4240100000000 1.0
C      1  0.5080850000000  0.4722460000000  0.4240080000000 1.0
C      1  0.4920830000000  0.4987190000000  0.5160900000000 1.0
C      1  0.5079420000000  0.4987260000000  0.5160890000000 1.0
C      1  0.4812640000000  0.5427040000000  0.4337520000000 1.0
C      1  0.5187150000000  0.5427360000000  0.4338350000000 1.0
C      1  0.4920650000000  0.5318280000000  0.5007460000000 1.0
C      1  0.5079440000000  0.5318830000000  0.5007550000000 1.0
C      1  0.5338350000000  0.4660940000000  0.5216900000000 1.0
C      1  0.4661710000000  0.4661040000000  0.5216930000000 1.0
C      1  0.5085340000000  0.4528260000000  0.4519640000000 1.0
C      1  0.4914750000000  0.4528220000000  0.4519650000000 1.0
C      1  0.5077430000000  0.5528180000000  0.4784180000000 1.0
C      1  0.4921090000000  0.5527640000000  0.4783840000000 1.0
C      1  0.4863210000000  0.4638620000000  0.5708450000000 1.0
C      1  0.5136700000000  0.4638560000000  0.5708460000000 1.0
C      1  0.5681590000000  0.4859980000000  0.5099290000000 1.0
C      1  0.4318510000000  0.4860220000000  0.5099290000000 1.0
C      1  0.5810830000000  0.4939990000000  0.4751980000000 1.0
C      1  0.4189120000000  0.4939960000000  0.4752060000000 1.0
C      1  0.4689520000000  0.4871520000000  0.4790800000000 1.0
C      1  0.5310570000000  0.4871530000000  0.4790810000000 1.0
C      1  0.4729510000000  0.4212360000000  0.4954380000000 1.0
C      1  0.5270400000000  0.4212240000000  0.4954380000000 1.0
C      1  0.5076380000000  0.5738880000000  0.5265640000000 1.0
C      1  0.4924630000000  0.5737750000000  0.5265970000000 1.0
C      1  0.5415150000000  0.5652470000000  0.5324340000000 1.0
C      1  0.4586640000000  0.5653280000000  0.5322980000000 1.0
C      1  0.4859870000000  0.5052310000000  0.5871430000000 1.0
C      1  0.5140140000000  0.5052160000000  0.5871500000000 1.0
C      1  0.4859560000000  0.4129750000000  0.5124810000000 1.0
C      1  0.5140260000000  0.4129680000000  0.5124800000000 1.0
C      1  0.5292580000000  0.5452790000000  0.5062970000000 1.0
C      1  0.4707680000000  0.5452470000000  0.5062690000000 1.0
C      1  0.4931740000000  0.4367110000000  0.4546910000000 1.0
C      1  0.5068350000000  0.4367100000000  0.4546910000000 1.0
C      1  0.5514190000000  0.4412730000000  0.5191150000000 1.0
C      1  0.4485720000000  0.4412960000000  0.5191210000000 1.0
C      1  0.5681970000000  0.5248410000000  0.5335850000000 1.0
C      1  0.4318400000000  0.5248910000000  0.5335550000000 1.0
C      1  0.5352290000000  0.4966680000000  0.4409260000000 1.0
C      1  0.4647730000000  0.4966460000000  0.4409170000000 1.0
C      1  0.4362670000000  0.4630470000000  0.5168440000000 1.0
C      1  0.5637330000000  0.4630200000000  0.5168380000000 1.0
C      1  0.5149500000000  0.5554210000000  0.4648380000000 1.0
C      1  0.4849590000000  0.5553690000000  0.4647920000000 1.0
C      1  0.4742410000000  0.5082000000000  0.5552570000000 1.0
C      1  0.5257770000000  0.5081810000000  0.5552720000000 1.0
C      1  0.5453890000000  0.4306280000000  0.5263790000000 1.0
C      1  0.4545960000000  0.4306480000000  0.5263830000000 1.0
C      1  0.4646680000000  0.4301480000000  0.4887420000000 1.0
C      1  0.5353250000000  0.4301340000000  0.4887380000000 1.0
C      1  0.4666270000000  0.4824230000000  0.4452080000000 1.0
C      1  0.5333790000000  0.4824400000000  0.4452080000000 1.0
C      1  0.5363300000000  0.5709730000000  0.5088290000000 1.0
C      1  0.4638870000000  0.5712030000000  0.5086080000000 1.0
C      1  0.4711200000000  0.5751760000000  0.4778250000000 1.0
C      1  0.5286260000000  0.5750590000000  0.4780450000000 1.0
C      1  0.5369660000000  0.5592260000000  0.4987980000000 1.0
C      1  0.4630410000000  0.5593850000000  0.4986180000000 1.0
C      1  0.4419610000000  0.4554810000000  0.5390700000000 1.0
C      1  0.5580320000000  0.4554490000000  0.5390650000000 1.0
C      1  0.4597190000000  0.4796170000000  0.4581940000000 1.0
C      1  0.5402890000000  0.4796270000000  0.4581930000000 1.0
C      1  0.5063440000000  0.5808660000000  0.5034810000000 1.0
C      1  0.4924550000000  0.5805640000000  0.5034490000000 1.0
C      1  0.5143630000000  0.4414400000000  0.5100760000000 1.0
C      1  0.4856330000000  0.4414450000000  0.5100780000000 1.0
C      1  0.5306630000000  0.5501400000000  0.4377340000000 1.0
C      1  0.4692860000000  0.5500840000000  0.4376070000000 1.0
C      1  0.4842000000000  0.5819650000000  0.4794320000000 1.0
C      1  0.5155240000000  0.5819300000000  0.4796080000000 1.0
C      1  0.4727140000000  0.4399240000000  0.4813310000000 1.0
C      1  0.5272830000000  0.4399160000000  0.4813320000000 1.0
C      1  0.4379750000000  0.4850200000000  0.5565690000000 1.0
C      1  0.5620330000000  0.4849750000000  0.5565740000000 1.0
C      1  0.5079060000000  0.5156710000000  0.5333090000000 1.0
C      1  0.4921270000000  0.5156680000000  0.5333090000000 1.0
C      1  0.5329630000000  0.5350870000000  0.4639000000000 1.0
C      1  0.4670180000000  0.5350630000000  0.4638410000000 1.0
C      1  0.5639330000000  0.5250170000000  0.5473950000000 1.0
C      1  0.4361180000000  0.5250820000000  0.5473560000000 1.0
C      1  0.4923860000000  0.5198500000000  0.4429830000000 1.0
C      1  0.5076060000000  0.5198560000000  0.4429910000000 1.0
C      1  0.5367770000000  0.4667410000000  0.4649570000000 1.0
C      1  0.4632260000000  0.4667350000000  0.4649620000000 1.0
C      1  0.5685770000000  0.4462160000000  0.4870280000000 1.0
C      1  0.4314160000000  0.4462220000000  0.4870430000000 1.0
C      1  0.5547400000000  0.5142160000000  0.4398370000000 1.0
C      1  0.4452470000000  0.5141630000000  0.4398220000000 1.0
C      1  0.4245500000000  0.5069170000000  0.5182470000000 1.0
C      1  0.5754730000000  0.5068850000000  0.5182520000000 1.0
C      1  0.5295250000000  0.5206150000000  0.4336910000000 1.0
C      1  0.4704670000000  0.5205810000000  0.4336680000000 1.0
C      1  0.5394090000000  0.4407650000000  0.5506290000000 1.0
C      1  0.4605800000000  0.4407900000000  0.5506300000000 1.0
C      1  0.5531070000000  0.4922100000000  0.5650480000000 1.0
C      1  0.4469030000000  0.4922550000000  0.5650370000000 1.0
C      1  0.4859930000000  0.4230280000000  0.5349290000000 1.0
C      1  0.5139890000000  0.4230210000000  0.5349290000000 1.0
C      1  0.5156600000000  0.4692330000000  0.5350010000000 1.0
C      1  0.4843490000000  0.4692380000000  0.5350060000000 1.0
C      1  0.5071930000000  0.4950990000000  0.4331020000000 1.0
C      1  0.4928210000000  0.4950920000000  0.4331010000000 1.0
C      1  0.4607550000000  0.5641630000000  0.4600560000000 1.0
C      1  0.5391730000000  0.5642080000000  0.4602180000000 1.0
C      1  0.5203270000000  0.5423970000000  0.4614140000000 1.0
C      1  0.4796220000000  0.5423820000000  0.4612770000000 1.0
C      1  0.4380840000000  0.5174800000000  0.4521800000000 1.0
C      1  0.5619050000000  0.5175230000000  0.4521950000000 1.0
C      1  0.4860350000000  0.4307370000000  0.4652020000000 1.0
C      1  0.5139710000000  0.4307370000000  0.4652040000000 1.0
C      1  0.5157300000000  0.5769480000000  0.4586210000000 1.0
C      1  0.4841810000000  0.5769360000000  0.4585020000000 1.0
C      1  0.4929750000000  0.4314830000000  0.5585770000000 1.0
C      1  0.5070080000000  0.4314810000000  0.5585750000000 1.0
C      1  0.4783810000000  0.5803090000000  0.5266150000000 1.0
C      1  0.5218380000000  0.5802360000000  0.5266300000000 1.0
C      1  0.5522800000000  0.4959550000000  0.4756370000000 1.0
C      1  0.4477230000000  0.4959460000000  0.4756380000000 1.0
C      1  0.5113550000000  0.5381640000000  0.4773740000000 1.0
C      1  0.4886210000000  0.5381020000000  0.4773600000000 1.0
C      1  0.5075190000000  0.4510580000000  0.5709390000000 1.0
C      1  0.4924700000000  0.4510610000000  0.5709390000000 1.0
C      1  0.4922090000000  0.5065260000000  0.5033670000000 1.0
C      1  0.5078150000000  0.5065410000000  0.5033670000000 1.0
C      1  0.4205430000000  0.4926860000000  0.5012770000000 1.0
C      1  0.5794680000000  0.4926620000000  0.5012750000000 1.0
C      1  0.5068400000000  0.4122690000000  0.5001850000000 1.0
C      1  0.4931450000000  0.4122720000000  0.5001860000000 1.0
C      1  0.5778630000000  0.5177020000000  0.4799060000000 1.0
C      1  0.4221460000000  0.5177070000000  0.4799010000000 1.0
C      1  0.5474590000000  0.4536790000000  0.4851440000000 1.0
C      1  0.4525400000000  0.4536850000000  0.4851530000000 1.0
C      1  0.5225660000000  0.4672160000000  0.4691950000000 1.0
C      1  0.4774390000000  0.4672120000000  0.4691960000000 1.0
C      1  0.4277450000000  0.5036950000000  0.5431390000000 1.0
C      1  0.5722860000000  0.5036380000000  0.5431480000000 1.0
C      1  0.5490790000000  0.5554170000000  0.5075840000000 1.0
C      1  0.4510130000000  0.5555030000000  0.5074750000000 1.0
C      1  0.4551340000000  0.5647230000000  0.5182480000000 1.0
C      1  0.5451460000000  0.5645810000000  0.5184180000000 1.0
C      1  0.5424760000000  0.4983580000000  0.4271930000000 1.0
C      1  0.4575170000000  0.4983190000000  0.4271840000000 1.0
C      1  0.5735570000000  0.5386590000000  0.4881240000000 1.0
C      1  0.4264760000000  0.5386680000000  0.4881040000000 1.0
C      1  0.4931390000000  0.5173380000000  0.5857030000000 1.0
C      1  0.5068700000000  0.5173290000000  0.5857080000000 1.0
C      1  0.4700130000000  0.4714650000000  0.5342740000000 1.0
C      1  0.5299960000000  0.4714530000000  0.5342720000000 1.0
C      1  0.4922460000000  0.4980210000000  0.4559990000000 1.0
C      1  0.5077600000000  0.4980240000000  0.4560000000000 1.0
C      1  0.5076040000000  0.5760110000000  0.4897890000000 1.0
C      1  0.4918330000000  0.5758070000000  0.4896950000000 1.0
C      1  0.5755080000000  0.5306710000000  0.4998560000000 1.0
C      1  0.4245350000000  0.5307060000000  0.4998450000000 1.0
C      1  0.4922430000000  0.5571780000000  0.5040620000000 1.0
C      1  0.5077570000000  0.5573330000000  0.5040880000000 1.0
C      1  0.5361640000000  0.5267490000000  0.4758740000000 1.0
C      1  0.4638360000000  0.5267430000000  0.4758440000000 1.0
C      1  0.4336320000000  0.5357650000000  0.5099650000000 1.0
C      1  0.5664260000000  0.5357150000000  0.5099930000000 1.0
C      1  0.4513550000000  0.5438460000000  0.5433690000000 1.0
C      1  0.5487150000000  0.5437690000000  0.5434490000000 1.0
C      1  0.4871180000000  0.5014070000000  0.4890330000000 1.0
C      1  0.5128980000000  0.5014130000000  0.4890390000000 1.0
C      1  0.4729420000000  0.5491490000000  0.5626270000000 1.0
C      1  0.5270990000000  0.5491090000000  0.5626740000000 1.0
C      1  0.4662210000000  0.5046530000000  0.4171060000000 1.0
C      1  0.5337630000000  0.5046890000000  0.4171190000000 1.0
C      1  0.5592810000000  0.4639170000000  0.5024120000000 1.0
C      1  0.4407180000000  0.4639320000000  0.5024180000000 1.0
C      1  0.4923340000000  0.4957400000000  0.5781050000000 1.0
C      1  0.5076670000000  0.4957320000000  0.5781070000000 1.0
C      1  0.5255000000000  0.4406020000000  0.4669470000000 1.0
C      1  0.4745060000000  0.4405980000000  0.4669460000000 1.0
C      1  0.4881190000000  0.5698740000000  0.5119100000000 1.0
C      1  0.5117810000000  0.5704700000000  0.5117000000000 1.0
C      1  0.4632590000000  0.4859100000000  0.5080560000000 1.0
C      1  0.5367510000000  0.4859050000000  0.5080540000000 1.0
C      1  0.4869750000000  0.4216390000000  0.4905650000000 1.0
C      1  0.5130180000000  0.4216330000000  0.4905640000000 1.0
C      1  0.5280950000000  0.4431980000000  0.5595370000000 1.0
C      1  0.4718930000000  0.4432100000000  0.5595410000000 1.0
C      1  0.5365100000000  0.5401150000000  0.5680390000000 1.0
C      1  0.4635300000000  0.5401610000000  0.5680090000000 1.0
C      1  0.5367160000000  0.4432180000000  0.4588080000000 1.0
C      1  0.4632910000000  0.4432120000000  0.4588060000000 1.0
C      1  0.4921580000000  0.5263150000000  0.5222150000000 1.0
C      1  0.5078800000000  0.5263270000000  0.5222140000000 1.0
C      1  0.5290960000000  0.5287550000000  0.5420260000000 1.0
C      1  0.4709510000000  0.5287790000000  0.5420060000000 1.0
C      1  0.4480390000000  0.5361800000000  0.4427980000000 1.0
C      1  0.5519210000000  0.5362380000000  0.4428620000000 1.0
C      1  0.4923830000000  0.5126870000000  0.4807580000000 1.0
C      1  0.5076410000000  0.5126900000000  0.4807580000000 1.0
C      1  0.4856310000000  0.4935790000000  0.5381340000000 1.0
C      1  0.5143860000000  0.4935760000000  0.5381350000000 1.0
C      1  0.4626710000000  0.5643060000000  0.4839340000000 1.0
C      1  0.5371910000000  0.5641820000000  0.4840910000000 1.0
C      1  0.4699170000000  0.5080480000000  0.5202110000000 1.0
C      1  0.5301040000000  0.5080500000000  0.5202170000000 1.0
C      1  0.5571310000000  0.5501200000000  0.4758880000000 1.0
C      1  0.4428440000000  0.5500970000000  0.4758010000000 1.0
C      1  0.4178620000000  0.4888360000000  0.4880810000000 1.0
C      1  0.5821380000000  0.4888330000000  0.4880700000000 1.0
C      1  0.4535480000000  0.4662080000000  0.4770030000000 1.0
C      1  0.5464550000000  0.4662060000000  0.4769970000000 1.0
C      1  0.4933320000000  0.4516690000000  0.4769230000000 1.0
C      1  0.5066710000000  0.4516680000000  0.4769220000000 1.0
C      1  0.5283870000000  0.4443050000000  0.5124960000000 1.0
C      1  0.4716090000000  0.4443120000000  0.5125020000000 1.0
C      1  0.5180640000000  0.4602290000000  0.4928300000000 1.0
C      1  0.4819400000000  0.4602320000000  0.4928320000000 1.0
C      1  0.4725460000000  0.5026300000000  0.4850690000000 1.0
C      1  0.5274680000000  0.5026340000000  0.4850790000000 1.0
C      1  0.5630140000000  0.5477610000000  0.4889160000000 1.0
C      1  0.4370250000000  0.5477590000000  0.4888640000000 1.0
C      1  0.4307860000000  0.4896270000000  0.5444430000000 1.0
C      1  0.5692280000000  0.4895770000000  0.5444470000000 1.0
C      1  0.5503490000000  0.5169010000000  0.4621410000000 1.0
C      1  0.4496450000000  0.5168770000000  0.4621250000000 1.0
C      1  0.5073520000000  0.4673110000000  0.4993920000000 1.0
C      1  0.4926550000000  0.4673120000000  0.4993930000000 1.0
C      1  0.4397080000000  0.4711610000000  0.5555450000000 1.0
C      1  0.5602900000000  0.4711210000000  0.5555440000000 1.0
C      1  0.4602810000000  0.4754660000000  0.4311670000000 1.0
C      1  0.5397300000000  0.4754960000000  0.4311600000000 1.0
C      1  0.5388610000000  0.4311270000000  0.5396290000000 1.0
C      1  0.4611250000000  0.4311480000000  0.5396310000000 1.0
C      1  0.5491580000000  0.5097700000000  0.4966640000000 1.0
C      1  0.4508550000000  0.5097780000000  0.4966560000000 1.0
C      1  0.4586680000000  0.4900330000000  0.4682660000000 1.0
C      1  0.5413370000000  0.4900420000000  0.4682670000000 1.0
C      1  0.5277290000000  0.5055400000000  0.5837330000000 1.0
C      1  0.4722750000000  0.5055680000000  0.5837170000000 1.0
C      1  0.4704110000000  0.5733380000000  0.5353490000000 1.0
C      1  0.5297530000000  0.5732820000000  0.5354230000000 1.0
C      1  0.5618370000000  0.4906300000000  0.4395890000000 1.0
C      1  0.4381560000000  0.4905850000000  0.4395940000000 1.0
C      1  0.4924260000000  0.5102090000000  0.4656330000000 1.0
C      1  0.5075800000000  0.5102110000000  0.4656360000000 1.0
C      1  0.5439780000000  0.5293350000000  0.5612950000000 1.0
C      1  0.4560580000000  0.5293980000000  0.5612540000000 1.0
C      1  0.4299280000000  0.4951290000000  0.4498070000000 1.0
C      1  0.5700670000000  0.4951690000000  0.4498000000000 1.0
C      1  0.4884320000000  0.5610560000000  0.4902390000000 1.0
C      1  0.5113610000000  0.5612180000000  0.4902600000000 1.0
C      1  0.5522990000000  0.4972110000000  0.4896590000000 1.0
C      1  0.4477100000000  0.4972170000000  0.4896580000000 1.0
C      1  0.4878490000000  0.4820790000000  0.4343730000000 1.0
C      1  0.5121710000000  0.4820880000000  0.4343690000000 1.0
C      1  0.4857530000000  0.5155960000000  0.4126230000000 1.0
C      1  0.5142390000000  0.5156120000000  0.4126290000000 1.0
C      1  0.4923470000000  0.5435960000000  0.5475950000000 1.0
C      1  0.5077230000000  0.5435900000000  0.5476200000000 1.0
C      1  0.5267820000000  0.5155680000000  0.4574180000000 1.0
C      1  0.4732090000000  0.5155510000000  0.4573980000000 1.0
C      1  0.5151790000000  0.4468660000000  0.4876220000000 1.0
C      1  0.4848210000000  0.4468700000000  0.4876220000000 1.0
C      1  0.4604780000000  0.5358130000000  0.5348940000000 1.0
C      1  0.5395750000000  0.5357900000000  0.5349270000000 1.0
C      1  0.5697980000000  0.4597750000000  0.4893600000000 1.0
C      1  0.4302020000000  0.4597840000000  0.4893720000000 1.0
C      1  0.4926280000000  0.4994030000000  0.5624530000000 1.0
C      1  0.5073810000000  0.4993970000000  0.5624560000000 1.0
C      1  0.5079160000000  0.5277910000000  0.4862780000000 1.0
C      1  0.4921130000000  0.5277620000000  0.4862710000000 1.0
C      1  0.4450050000000  0.5017580000000  0.4334420000000 1.0
C      1  0.5549810000000  0.5018100000000  0.4334560000000 1.0
C      1  0.5387470000000  0.5243330000000  0.4545120000000 1.0
C      1  0.4612340000000  0.5242980000000  0.4544830000000 1.0
C      1  0.5780620000000  0.5068880000000  0.4700100000000 1.0
C      1  0.4219370000000  0.5068800000000  0.4700130000000 1.0
C      1  0.4850990000000  0.4916620000000  0.4077200000000 1.0
C      1  0.5149080000000  0.4916770000000  0.4077220000000 1.0
C      1  0.5154910000000  0.4398740000000  0.5658570000000 1.0
C      1  0.4844950000000  0.4398790000000  0.5658590000000 1.0
C      1  0.4575150000000  0.5564850000000  0.5438130000000 1.0
C      1  0.5425890000000  0.5564140000000  0.5439380000000 1.0
C      1  0.4929620000000  0.4161000000000  0.5246180000000 1.0
C      1  0.5070190000000  0.4160970000000  0.5246170000000 1.0
C      1  0.4415900000000  0.4668100000000  0.4451560000000 1.0
C      1  0.5584090000000  0.4668510000000  0.4451550000000 1.0
C      1  0.5752160000000  0.5121640000000  0.5314490000000 1.0
C      1  0.4248130000000  0.5122130000000  0.5314360000000 1.0
C      1  0.4927390000000  0.4239120000000  0.4764200000000 1.0
C      1  0.5072600000000  0.4239110000000  0.4764210000000 1.0
C      1  0.4763730000000  0.4545790000000  0.5523920000000 1.0
C      1  0.5236130000000  0.4545690000000  0.5523930000000 1.0
C      1  0.4455270000000  0.5342500000000  0.5523070000000 1.0
C      1  0.5545300000000  0.5341700000000  0.5523690000000 1.0
C      1  0.4435890000000  0.5446170000000  0.5021600000000 1.0
C      1  0.5564860000000  0.5445710000000  0.5022030000000 1.0
C      1  0.4921790000000  0.4741340000000  0.5782690000000 1.0
C      1  0.5078100000000  0.4741290000000  0.5782700000000 1.0
C      1  0.4839430000000  0.5044800000000  0.5278190000000 1.0
C      1  0.5160820000000  0.5044800000000  0.5278200000000 1.0
C      1  0.4438820000000  0.4414460000000  0.4870390000000 1.0
C      1  0.5561120000000  0.4414370000000  0.4870240000000 1.0
C      1  0.5635210000000  0.4993700000000  0.5156080000000 1.0
C      1  0.4364950000000  0.4993920000000  0.5156060000000 1.0
C      1  0.4556650000000  0.5132660000000  0.5236220000000 1.0
C      1  0.5443610000000  0.5132550000000  0.5236310000000 1.0
C      1  0.4190680000000  0.5065700000000  0.5044480000000 1.0
C      1  0.5809510000000  0.5065420000000  0.5044500000000 1.0
C      1  0.4659820000000  0.5274970000000  0.4897910000000 1.0
C      1  0.5340310000000  0.5275080000000  0.4898140000000 1.0
C      1  0.4915470000000  0.5648900000000  0.4547560000000 1.0
C      1  0.5083910000000  0.5649140000000  0.4547770000000 1.0
C      1  0.4513370000000  0.4521810000000  0.5499770000000 1.0
C      1  0.5486540000000  0.4521520000000  0.5499720000000 1.0
C      1  0.4510790000000  0.4635860000000  0.5594080000000 1.0
C      1  0.5489150000000  0.4635540000000  0.5594060000000 1.0
C      1  0.5556580000000  0.4770510000000  0.4371760000000 1.0
C      1  0.4443430000000  0.4770110000000  0.4371800000000 1.0
C      1  0.4823120000000  0.4814760000000  0.4729800000000 1.0
C      1  0.5176960000000  0.4814790000000  0.4729810000000 1.0
C      1  0.5456090000000  0.5326780000000  0.4978430000000 1.0
C      1  0.4544230000000  0.5326900000000  0.4978260000000 1.0
C      1  0.4877780000000  0.5408670000000  0.5227700000000 1.0
C      1  0.5122740000000  0.5408870000000  0.5227850000000 1.0
C      1  0.5353930000000  0.4937850000000  0.5191730000000 1.0
C      1  0.4646230000000  0.4937880000000  0.5191750000000 1.0
C      1  0.4930330000000  0.4803580000000  0.4110610000000 1.0
C      1  0.5069830000000  0.4803640000000  0.4110610000000 1.0
C      1  0.5070500000000  0.5365850000000  0.5711740000000 1.0
C      1  0.4929720000000  0.5365890000000  0.5711620000000 1.0
C      1  0.4918040000000  0.5636820000000  0.5373740000000 1.0
C      1  0.5083490000000  0.5637110000000  0.5373030000000 1.0
C      1  0.5284140000000  0.4531970000000  0.5232270000000 1.0
C      1  0.4715860000000  0.4532050000000  0.5232320000000 1.0
C      1  0.4413510000000  0.4784530000000  0.5014780000000 1.0
C      1  0.5586550000000  0.4784380000000  0.5014770000000 1.0
C      1  0.4866820000000  0.5450350000000  0.5616410000000 1.0
C      1  0.5133520000000  0.5450320000000  0.5616720000000 1.0
C      1  0.4610530000000  0.4707890000000  0.5667840000000 1.0
C      1  0.5389430000000  0.4707610000000  0.5667850000000 1.0
C      1  0.4414150000000  0.4523250000000  0.5249310000000 1.0
C      1  0.5585800000000  0.4522980000000  0.5249240000000 1.0
C      1  0.5437680000000  0.5238100000000  0.4397650000000 1.0
C      1  0.4562170000000  0.5237580000000  0.4397400000000 1.0
C      1  0.5447700000000  0.4570080000000  0.4990020000000 1.0
C      1  0.4552310000000  0.4570180000000  0.4990100000000 1.0
C      1  0.4530780000000  0.4346850000000  0.4951630000000 1.0
C      1  0.5469190000000  0.4346740000000  0.4951510000000 1.0
C      1  0.5274080000000  0.4171090000000  0.5095160000000 1.0
C      1  0.4725760000000  0.4171230000000  0.5095160000000 1.0
C      1  0.4920530000000  0.4813530000000  0.5326270000000 1.0
C      1  0.5079620000000  0.4813530000000  0.5326240000000 1.0
C      1  0.5697790000000  0.4779760000000  0.5352940000000 1.0
C      1  0.4302270000000  0.4780190000000  0.5352940000000 1.0
C      1  0.4618200000000  0.4856200000000  0.4209060000000 1.0
C      1  0.5381890000000  0.4856570000000  0.4209080000000 1.0
C      1  0.4609400000000  0.5286950000000  0.5754320000000 1.0
C      1  0.5390910000000  0.5286470000000  0.5754620000000 1.0
C      1  0.4754320000000  0.5773010000000  0.5128880000000 1.0
C      1  0.5248420000000  0.5770630000000  0.5130460000000 1.0
C      1  0.4265780000000  0.5311850000000  0.4764940000000 1.0
C      1  0.5734340000000  0.5311870000000  0.4765100000000 1.0
C      1  0.4570710000000  0.4548210000000  0.4578640000000 1.0
C      1  0.5429310000000  0.4548280000000  0.4578550000000 1.0
C      1  0.5167750000000  0.4851020000000  0.5799800000000 1.0
C      1  0.4832210000000  0.4851150000000  0.5799760000000 1.0
C      1  0.4433520000000  0.4601640000000  0.4564940000000 1.0
C      1  0.5566490000000  0.4601820000000  0.4564790000000 1.0
C      1  0.5264860000000  0.4820440000000  0.5530620000000 1.0
C      1  0.4735190000000  0.4820570000000  0.5530600000000 1.0
C      1  0.5142250000000  0.5235320000000  0.5746550000000 1.0
C      1  0.4857920000000  0.5235450000000  0.5746450000000 1.0
C      1  0.4630520000000  0.5317310000000  0.5103760000000 1.0
C      1  0.5369730000000  0.5317480000000  0.5103920000000 1.0
C      1  0.4868310000000  0.5134900000000  0.5608150000000 1.0
C      1  0.5131880000000  0.5134810000000  0.5608230000000 1.0
C      1  0.5798870000000  0.5175250000000  0.4949530000000 1.0
C      1  0.4201390000000  0.5175520000000  0.4949520000000 1.0
C      1  0.5335600000000  0.5130630000000  0.4952470000000 1.0
C      1  0.4664550000000  0.5130590000000  0.4952330000000 1.0
C      1  0.4683020000000  0.4644500000000  0.4279170000000 1.0
C      1  0.5317190000000  0.4644710000000  0.4279100000000 1.0
C      1  0.5136330000000  0.4489030000000  0.5427800000000 1.0
C      1  0.4863600000000  0.4489090000000  0.5427850000000 1.0
C      1  0.4585340000000  0.4912860000000  0.5323100000000 1.0
C      1  0.5414790000000  0.4912720000000  0.5323100000000 1.0
C      1  0.5470610000000  0.4849790000000  0.4967440000000 1.0
C      1  0.4529490000000  0.4849860000000  0.4967470000000 1.0
C      1  0.4858520000000  0.4850700000000  0.4590000000000 1.0
C      1  0.5141550000000  0.4850740000000  0.4590010000000 1.0
C      1  0.5540820000000  0.5225820000000  0.4901830000000 1.0
C      1  0.4459350000000  0.5225940000000  0.4901680000000 1.0
C      1  0.4813080000000  0.4614450000000  0.4286230000000 1.0
C      1  0.5187160000000  0.4614540000000  0.4286230000000 1.0
C      1  0.4559410000000  0.5048630000000  0.4675420000000 1.0
C      1  0.5440610000000  0.5048790000000  0.4675490000000 1.0
C      1  0.4933050000000  0.4483790000000  0.5194670000000 1.0
C      1  0.5066940000000  0.4483780000000  0.5194650000000 1.0
C      1  0.4292990000000  0.4686020000000  0.4777040000000 1.0
C      1  0.5707020000000  0.4686010000000  0.4776960000000 1.0
C      1  0.5285800000000  0.4921780000000  0.4123400000000 1.0
C      1  0.4714250000000  0.4921490000000  0.4123380000000 1.0
C      1  0.5147880000000  0.4553500000000  0.4656030000000 1.0
C      1  0.4852180000000  0.4553480000000  0.4656030000000 1.0
C      1  0.4830590000000  0.4614630000000  0.4433910000000 1.0
C      1  0.5169480000000  0.4614700000000  0.4433910000000 1.0
C      1  0.5612030000000  0.5328360000000  0.4532530000000 1.0
C      1  0.4387750000000  0.5327900000000  0.4532130000000 1.0
C      1  0.4407970000000  0.4666210000000  0.4695050000000 1.0
C      1  0.5592030000000  0.4666230000000  0.4694970000000 1.0
C      1  0.4853760000000  0.5445240000000  0.5082960000000 1.0
C      1  0.5146610000000  0.5446450000000  0.5083340000000 1.0
C      1  0.4540650000000  0.5591710000000  0.4731020000000 1.0
C      1  0.5458560000000  0.5591650000000  0.4732450000000 1.0
C      1  0.5248330000000  0.4674090000000  0.5611050000000 1.0
C      1  0.4751610000000  0.4674210000000  0.5611050000000 1.0
C      1  0.4679080000000  0.4659170000000  0.4965250000000 1.0
C      1  0.5320970000000  0.4659120000000  0.4965200000000 1.0
C      1  0.5655550000000  0.5116730000000  0.5528710000000 1.0
C      1  0.4344890000000  0.5117380000000  0.5528480000000 1.0
C      1  0.4922430000000  0.5199910000000  0.5483610000000 1.0
C      1  0.5077880000000  0.5199860000000  0.5483630000000 1.0
C      1  0.5083980000000  0.5342580000000  0.4631020000000 1.0
C      1  0.4915550000000  0.5342540000000  0.4630980000000 1.0
C      1  0.5292930000000  0.5736690000000  0.4641170000000 1.0
C      1  0.4705800000000  0.5736780000000  0.4639090000000 1.0
C      1  0.5073050000000  0.5626290000000  0.4401590000000 1.0
C      1  0.4926500000000  0.5626140000000  0.4401380000000 1.0
C      1  0.5277990000000  0.5180380000000  0.5086870000000 1.0
C      1  0.4722250000000  0.5180200000000  0.5086740000000 1.0
C      1  0.5540320000000  0.5053490000000  0.5593830000000 1.0
C      1  0.4459960000000  0.5054000000000  0.5593740000000 1.0
C      1  0.5141240000000  0.4753790000000  0.5084340000000 1.0
C      1  0.4858870000000  0.4753810000000  0.5084360000000 1.0
C      1  0.5129190000000  0.5204840000000  0.5084950000000 1.0
C      1  0.4871100000000  0.5204470000000  0.5084930000000 1.0
C      1  0.4926500000000  0.5047250000000  0.4075660000000 1.0
C      1  0.5073510000000  0.5047340000000  0.4075690000000 1.0
C      1  0.4622040000000  0.5584790000000  0.4470630000000 1.0
C      1  0.5377330000000  0.5585210000000  0.4472190000000 1.0
C      1  0.4732000000000  0.5077730000000  0.4441170000000 1.0
C      1  0.5268010000000  0.5077950000000  0.4441340000000 1.0
C      1  0.5075680000000  0.5841120000000  0.4677540000000 1.0
C      1  0.4922710000000  0.5841350000000  0.4676680000000 1.0
C      1  0.4711400000000  0.4737910000000  0.5091440000000 1.0
C      1  0.5288690000000  0.4737860000000  0.5091410000000 1.0
C      1  0.4648940000000  0.5189260000000  0.5509350000000 1.0
C      1  0.5351390000000  0.5188890000000  0.5509540000000 1.0
C      1  0.4543640000000  0.5290960000000  0.5233120000000 1.0
C      1  0.5456740000000  0.5290860000000  0.5233300000000 1.0
C      1  0.5120120000000  0.5492070000000  0.5344330000000 1.0
C      1  0.4880820000000  0.5491970000000  0.5344230000000 1.0
C      1  0.4928620000000  0.4883560000000  0.4829500000000 1.0
C      1  0.5071490000000  0.4883590000000  0.4829530000000 1.0
C      1  0.5078440000000  0.4373360000000  0.4973580000000 1.0
C      1  0.4921510000000  0.4373380000000  0.4973580000000 1.0
C      1  0.4923820000000  0.4839870000000  0.5172600000000 1.0
C      1  0.5076350000000  0.4839910000000  0.5172570000000 1.0
C      1  0.5080090000000  0.4336520000000  0.5435250000000 1.0
C      1  0.4919760000000  0.4336540000000  0.5435260000000 1.0
C      1  0.4694180000000  0.5583150000000  0.5523490000000 1.0
C      1  0.5306500000000  0.5582670000000  0.5524110000000 1.0
C      1  0.4214340000000  0.4802780000000  0.4774170000000 1.0
C      1  0.5785670000000  0.4802780000000  0.4774060000000 1.0
C      1  0.4477310000000  0.5075100000000  0.5117170000000 1.0
C      1  0.5522900000000  0.5074950000000  0.5117240000000 1.0
C      1  0.4387230000000  0.5366400000000  0.4684120000000 1.0
C      1  0.5612600000000  0.5366650000000  0.4684580000000 1.0
C      1  0.5721060000000  0.5069050000000  0.4565700000000 1.0
C      1  0.4278870000000  0.5068710000000  0.4565680000000 1.0
C      1  0.5158720000000  0.5316860000000  0.5465010000000 1.0
C      1  0.4841750000000  0.5317050000000  0.5465000000000 1.0
C      1  0.5438360000000  0.5475970000000  0.4405360000000 1.0
C      1  0.4561140000000  0.5475270000000  0.4404150000000 1.0
C      1  0.4641430000000  0.4816770000000  0.5415920000000 1.0
C      1  0.5358650000000  0.4816630000000  0.5415920000000 1.0
C      1  0.4873150000000  0.5212470000000  0.4575590000000 1.0
C      1  0.5126750000000  0.5212580000000  0.4575680000000 1.0
C      1  0.4384660000000  0.5318490000000  0.5226660000000 1.0
C      1  0.5615820000000  0.5318070000000  0.5226940000000 1.0
C      1  0.4650920000000  0.4215670000000  0.5209840000000 1.0
C      1  0.5348910000000  0.4215470000000  0.5209850000000 1.0
C      1  0.4822490000000  0.5287170000000  0.4354720000000 1.0
C      1  0.5177450000000  0.5287450000000  0.4355100000000 1.0
C      1  0.5463560000000  0.5041450000000  0.5354070000000 1.0
C      1  0.4536680000000  0.5041650000000  0.5354040000000 1.0
C      1  0.4610870000000  0.4761790000000  0.4870550000000 1.0
C      1  0.5389200000000  0.4761760000000  0.4870520000000 1.0
C      1  0.5280150000000  0.4231030000000  0.5338650000000 1.0
C      1  0.4719680000000  0.4231180000000  0.5338650000000 1.0
C      1  0.4556210000000  0.5084440000000  0.5486000000000 1.0
C      1  0.5444120000000  0.5084110000000  0.5486070000000 1.0
C      1  0.5260020000000  0.5161140000000  0.4196950000000 1.0
C      1  0.4739820000000  0.5160790000000  0.4196760000000 1.0
C      1  0.5317170000000  0.5116850000000  0.4720050000000 1.0
C      1  0.4682850000000  0.5116760000000  0.4719900000000 1.0
C      1  0.5648710000000  0.4670820000000  0.5429310000000 1.0
C      1  0.4351270000000  0.4671220000000  0.5429330000000 1.0
C      1  0.5124030000000  0.5046360000000  0.4425130000000 1.0
C      1  0.4876020000000  0.5046260000000  0.4425070000000 1.0
C      1  0.5217120000000  0.5666590000000  0.5451940000000 1.0
C      1  0.4783940000000  0.5666950000000  0.5451840000000 1.0
C      1  0.5072580000000  0.5503790000000  0.4328360000000 1.0
C      1  0.4927130000000  0.5503690000000  0.4328020000000 1.0
C      1  0.5305180000000  0.4913340000000  0.5790110000000 1.0
C      1  0.4694820000000  0.4913610000000  0.5790030000000 1.0
C      1  0.4485940000000  0.5253980000000  0.4747600000000 1.0
C      1  0.5514070000000  0.5254080000000  0.4747830000000 1.0
C      1  0.5428540000000  0.4437470000000  0.5066220000000 1.0
C      1  0.4571410000000  0.4437600000000  0.5066310000000 1.0
END
