TITL C-358545-397-2 93.5743122084998 1000000 -1642.31536631765 0 0 240 (C1) n - 1
REM
REM in /home/nfs/bkarasulu/CARBON/AIRSS/Generating-Clusters/GAP-ML-2020/Higher-Symm/Selected-Sizes/Larger-Clusters/Only-C240
REM
REM
REM
REM
REM
REM ./C.cell (db1db5b03a21c153a00b653f6831bbfd)
REM
REM compiler GCC version 9.2.1 20190827 (Red Hat 9.2.1-1)
REM options -cpp -mtune=generic -march=x86-64 -g -O0 -fpre-include=/usr/include/finclude/math-vector-fortran.h
REM seed -84745223 -1240104103 -1179258443 945233461 494325974 -1285194333 1226947249 1766054833 1696213892 682978232 1261160538 -1344927253 1869835943 -497800869 -969327313 927129550 -1157977155 -1189154572 -928896648 -624009780 1876458134 1450236715 -232944568 -194196412 -1810365211 439401592 -1414104684 -1140489007 1115694555 1098006439 838771709 -364951123 922063400
REM
CELL 1.54180  100.00000  100.00000  100.00000   90.00000   90.00000   90.00000
LATT -1
SFAC C  
C      1  0.4753790000000  0.5084810000000  0.4893960000000 1.0
C      1  0.4825750000000  0.4773020000000  0.5172510000000 1.0
C      1  0.4855130000000  0.5248300000000  0.5069760000000 1.0
C      1  0.4887060000000  0.4548040000000  0.5279840000000 1.0
C      1  0.4899560000000  0.5448990000000  0.5230440000000 1.0
C      1  0.4940030000000  0.4968700000000  0.4497110000000 1.0
C      1  0.5396910000000  0.4923480000000  0.5846600000000 1.0
C      1  0.5350820000000  0.5771770000000  0.4626250000000 1.0
C      1  0.5360970000000  0.4358730000000  0.4501000000000 1.0
C      1  0.5294470000000  0.4354860000000  0.4620480000000 1.0
C      1  0.5324210000000  0.5017680000000  0.5778060000000 1.0
C      1  0.5299040000000  0.5655110000000  0.4572160000000 1.0
C      1  0.5533960000000  0.4957300000000  0.5504010000000 1.0
C      1  0.5582740000000  0.5501440000000  0.4725280000000 1.0
C      1  0.5507610000000  0.4594510000000  0.4738660000000 1.0
C      1  0.5492280000000  0.4474230000000  0.5212520000000 1.0
C      1  0.5515260000000  0.5397030000000  0.5296970000000 1.0
C      1  0.5558550000000  0.5107060000000  0.4488010000000 1.0
C      1  0.5252820000000  0.5421040000000  0.4288390000000 1.0
C      1  0.5239210000000  0.4171390000000  0.4939370000000 1.0
C      1  0.5252450000000  0.5375130000000  0.5697820000000 1.0
C      1  0.4835390000000  0.4873380000000  0.4268530000000 1.0
C      1  0.4814630000000  0.4395550000000  0.5480540000000 1.0
C      1  0.4808310000000  0.5700270000000  0.5257920000000 1.0
C      1  0.4443400000000  0.5160250000000  0.4636240000000 1.0
C      1  0.4450680000000  0.4602240000000  0.5054090000000 1.0
C      1  0.4445390000000  0.5231670000000  0.5323610000000 1.0
C      1  0.4633190000000  0.5209320000000  0.4508370000000 1.0
C      1  0.4693880000000  0.4421060000000  0.4988330000000 1.0
C      1  0.4667180000000  0.5272700000000  0.5527010000000 1.0
C      1  0.4462380000000  0.5288170000000  0.4821610000000 1.0
C      1  0.4497480000000  0.4710760000000  0.4858300000000 1.0
C      1  0.4468950000000  0.5006350000000  0.5348160000000 1.0
C      1  0.5230270000000  0.5293270000000  0.4695260000000 1.0
C      1  0.5188310000000  0.4663380000000  0.4916640000000 1.0
C      1  0.5206600000000  0.5111060000000  0.5393110000000 1.0
C      1  0.5555880000000  0.4850380000000  0.4695500000000 1.0
C      1  0.5527490000000  0.4783740000000  0.5309210000000 1.0
C      1  0.5576790000000  0.5358950000000  0.4978250000000 1.0
C      1  0.4730760000000  0.5215920000000  0.4410640000000 1.0
C      1  0.4767990000000  0.4347160000000  0.5059290000000 1.0
C      1  0.4744190000000  0.5373310000000  0.5540950000000 1.0
C      1  0.4936620000000  0.4672520000000  0.4822290000000 1.0
C      1  0.4941860000000  0.5048620000000  0.5415230000000 1.0
C      1  0.4970260000000  0.5284280000000  0.4751970000000 1.0
C      1  0.4981160000000  0.5549730000000  0.5388880000000 1.0
C      1  0.5006590000000  0.5064630000000  0.4325200000000 1.0
C      1  0.5000710000000  0.4374980000000  0.5284360000000 1.0
C      1  0.4605760000000  0.5151290000000  0.5510010000000 1.0
C      1  0.4618030000000  0.5314240000000  0.4612210000000 1.0
C      1  0.4637440000000  0.4508900000000  0.4902010000000 1.0
C      1  0.4941390000000  0.4838420000000  0.5121190000000 1.0
C      1  0.4980590000000  0.5174570000000  0.5061350000000 1.0
C      1  0.4879600000000  0.5044070000000  0.4827120000000 1.0
C      1  0.4514300000000  0.4970440000000  0.4528430000000 1.0
C      1  0.4454740000000  0.4593540000000  0.5291810000000 1.0
C      1  0.4462200000000  0.5434940000000  0.5202990000000 1.0
C      1  0.4326200000000  0.4783070000000  0.5170420000000 1.0
C      1  0.4327260000000  0.5239570000000  0.5101060000000 1.0
C      1  0.4355130000000  0.4957470000000  0.4733550000000 1.0
C      1  0.4850450000000  0.4939410000000  0.4593220000000 1.0
C      1  0.4800470000000  0.4656060000000  0.5263920000000 1.0
C      1  0.4821180000000  0.5372620000000  0.5137040000000 1.0
C      1  0.4718290000000  0.4519460000000  0.4520960000000 1.0
C      1  0.4665290000000  0.4803360000000  0.5667610000000 1.0
C      1  0.4684640000000  0.5625500000000  0.4810530000000 1.0
C      1  0.5270380000000  0.5255650000000  0.5729180000000 1.0
C      1  0.5260100000000  0.5498320000000  0.4387760000000 1.0
C      1  0.5246580000000  0.4216870000000  0.4823330000000 1.0
C      1  0.5403840000000  0.4753130000000  0.4269690000000 1.0
C      1  0.5405970000000  0.4496270000000  0.5648670000000 1.0
C      1  0.5401070000000  0.5766750000000  0.5108060000000 1.0
C      1  0.5423920000000  0.4595410000000  0.4628870000000 1.0
C      1  0.5452010000000  0.4880250000000  0.5581990000000 1.0
C      1  0.5474270000000  0.5574090000000  0.4766410000000 1.0
C      1  0.4985070000000  0.4554400000000  0.4874740000000 1.0
C      1  0.5000280000000  0.5147540000000  0.5488840000000 1.0
C      1  0.5006500000000  0.5318120000000  0.4619600000000 1.0
C      1  0.4425640000000  0.4899410000000  0.4616830000000 1.0
C      1  0.4370470000000  0.4710180000000  0.5295300000000 1.0
C      1  0.4373850000000  0.5383540000000  0.5100870000000 1.0
C      1  0.4522440000000  0.4876690000000  0.5364490000000 1.0
C      1  0.4528410000000  0.5352910000000  0.4926830000000 1.0
C      1  0.4570190000000  0.4770030000000  0.4753400000000 1.0
C      1  0.5500940000000  0.5469300000000  0.4991470000000 1.0
C      1  0.5463590000000  0.4830430000000  0.4597780000000 1.0
C      1  0.5446360000000  0.4720500000000  0.5397830000000 1.0
C      1  0.5292200000000  0.4707810000000  0.4235400000000 1.0
C      1  0.5292350000000  0.4496040000000  0.5702500000000 1.0
C      1  0.5285320000000  0.5806970000000  0.5082150000000 1.0
C      1  0.5168420000000  0.5469920000000  0.5655010000000 1.0
C      1  0.5161470000000  0.5337620000000  0.4236410000000 1.0
C      1  0.5167880000000  0.4172080000000  0.5052410000000 1.0
C      1  0.4581820000000  0.5500510000000  0.5144870000000 1.0
C      1  0.4616300000000  0.4848030000000  0.4531520000000 1.0
C      1  0.4569670000000  0.4600720000000  0.5387120000000 1.0
C      1  0.4646040000000  0.4925800000000  0.5635320000000 1.0
C      1  0.4682070000000  0.5531130000000  0.4725420000000 1.0
C      1  0.4695890000000  0.4525020000000  0.4646610000000 1.0
C      1  0.5497270000000  0.4828970000000  0.4332770000000 1.0
C      1  0.5496780000000  0.4503260000000  0.5547160000000 1.0
C      1  0.5497880000000  0.5680020000000  0.5148350000000 1.0
C      1  0.4846180000000  0.4502910000000  0.4302410000000 1.0
C      1  0.4829920000000  0.4643090000000  0.5762550000000 1.0
C      1  0.4827360000000  0.5810020000000  0.4898800000000 1.0
C      1  0.5052300000000  0.5277490000000  0.4237820000000 1.0
C      1  0.5082310000000  0.4200650000000  0.5137220000000 1.0
C      1  0.5065340000000  0.5516810000000  0.5606010000000 1.0
C      1  0.5084210000000  0.5533480000000  0.4530170000000 1.0
C      1  0.5092600000000  0.4360270000000  0.4756220000000 1.0
C      1  0.5100650000000  0.5110360000000  0.5708410000000 1.0
C      1  0.5574300000000  0.5508180000000  0.5233960000000 1.0
C      1  0.5593780000000  0.4982270000000  0.4432930000000 1.0
C      1  0.5540320000000  0.4485650000000  0.5345970000000 1.0
C      1  0.4887700000000  0.5586810000000  0.5286740000000 1.0
C      1  0.4924850000000  0.4949600000000  0.4344770000000 1.0
C      1  0.4895850000000  0.4428340000000  0.5369640000000 1.0
C      1  0.4902980000000  0.4536840000000  0.5697190000000 1.0
C      1  0.4899140000000  0.5811810000000  0.5024830000000 1.0
C      1  0.4914470000000  0.4616090000000  0.4246450000000 1.0
C      1  0.4527660000000  0.5108490000000  0.4533100000000 1.0
C      1  0.4470220000000  0.4533800000000  0.5170410000000 1.0
C      1  0.4471170000000  0.5364780000000  0.5319070000000 1.0
C      1  0.4811750000000  0.4483660000000  0.5599850000000 1.0
C      1  0.4807150000000  0.5755370000000  0.5119410000000 1.0
C      1  0.4824200000000  0.4725910000000  0.4263020000000 1.0
C      1  0.5559590000000  0.4507450000000  0.5098120000000 1.0
C      1  0.5563870000000  0.5271160000000  0.5312560000000 1.0
C      1  0.5635940000000  0.5183220000000  0.4570320000000 1.0
C      1  0.5016570000000  0.5426130000000  0.5317880000000 1.0
C      1  0.5054910000000  0.5062210000000  0.4463810000000 1.0
C      1  0.5008920000000  0.4503260000000  0.5210070000000 1.0
C      1  0.5098250000000  0.4583430000000  0.4979120000000 1.0
C      1  0.5117950000000  0.5212160000000  0.5412160000000 1.0
C      1  0.5143850000000  0.5241260000000  0.4606590000000 1.0
C      1  0.4973680000000  0.4266240000000  0.5192610000000 1.0
C      1  0.4951100000000  0.5529210000000  0.5529940000000 1.0
C      1  0.4952730000000  0.5193400000000  0.4279750000000 1.0
C      1  0.4363080000000  0.5170140000000  0.5219350000000 1.0
C      1  0.4359480000000  0.5098740000000  0.4732620000000 1.0
C      1  0.4366810000000  0.4721290000000  0.5050170000000 1.0
C      1  0.5107370000000  0.4523830000000  0.5110700000000 1.0
C      1  0.5126590000000  0.5344830000000  0.5358930000000 1.0
C      1  0.5165440000000  0.5138690000000  0.4510720000000 1.0
C      1  0.4310240000000  0.5175590000000  0.4977570000000 1.0
C      1  0.4340790000000  0.4893600000000  0.4856150000000 1.0
C      1  0.4314080000000  0.4921820000000  0.5174340000000 1.0
C      1  0.4505250000000  0.5272750000000  0.4691410000000 1.0
C      1  0.4530920000000  0.4599470000000  0.4935440000000 1.0
C      1  0.4509180000000  0.5129110000000  0.5402800000000 1.0
C      1  0.4855480000000  0.4286790000000  0.5127530000000 1.0
C      1  0.4834870000000  0.5461170000000  0.5551980000000 1.0
C      1  0.4827020000000  0.5225240000000  0.4332660000000 1.0
C      1  0.5007290000000  0.5136700000000  0.5629370000000 1.0
C      1  0.5000870000000  0.5444530000000  0.4561100000000 1.0
C      1  0.5002070000000  0.4432520000000  0.4801220000000 1.0
C      1  0.4644290000000  0.4822960000000  0.5304510000000 1.0
C      1  0.4648090000000  0.5314340000000  0.4996280000000 1.0
C      1  0.4668050000000  0.4881510000000  0.4764100000000 1.0
C      1  0.4723670000000  0.4868830000000  0.5200190000000 1.0
C      1  0.4746610000000  0.5207520000000  0.4980050000000 1.0
C      1  0.4668140000000  0.4981500000000  0.4857790000000 1.0
C      1  0.5669370000000  0.5281370000000  0.4640150000000 1.0
C      1  0.5572270000000  0.4542810000000  0.4980200000000 1.0
C      1  0.5576460000000  0.5152870000000  0.5348400000000 1.0
C      1  0.5003390000000  0.4792220000000  0.4808970000000 1.0
C      1  0.5022080000000  0.4966510000000  0.5339860000000 1.0
C      1  0.5067680000000  0.5326520000000  0.4861470000000 1.0
C      1  0.5235670000000  0.4482260000000  0.5155800000000 1.0
C      1  0.5256480000000  0.5402750000000  0.5347200000000 1.0
C      1  0.5296750000000  0.5126040000000  0.4459690000000 1.0
C      1  0.5048360000000  0.4630590000000  0.4217720000000 1.0
C      1  0.5036590000000  0.4509610000000  0.5712740000000 1.0
C      1  0.5032890000000  0.5833350000000  0.5045130000000 1.0
C      1  0.4747280000000  0.4554940000000  0.4396090000000 1.0
C      1  0.4714900000000  0.4678950000000  0.5681390000000 1.0
C      1  0.4720060000000  0.5712050000000  0.4908890000000 1.0
C      1  0.4948580000000  0.4915890000000  0.4862930000000 1.0
C      1  0.4987750000000  0.4950790000000  0.5203750000000 1.0
C      1  0.5037330000000  0.5204010000000  0.4930970000000 1.0
C      1  0.4633260000000  0.5044830000000  0.5593690000000 1.0
C      1  0.4681920000000  0.5430490000000  0.4644890000000 1.0
C      1  0.4673210000000  0.4516330000000  0.4769910000000 1.0
C      1  0.5173950000000  0.4975030000000  0.5395240000000 1.0
C      1  0.5200990000000  0.5368870000000  0.4812250000000 1.0
C      1  0.5158550000000  0.4745060000000  0.4805410000000 1.0
C      1  0.4366280000000  0.5027260000000  0.5241690000000 1.0
C      1  0.4357420000000  0.5186960000000  0.4850370000000 1.0
C      1  0.4385370000000  0.4783530000000  0.4920590000000 1.0
C      1  0.5234050000000  0.5122960000000  0.5751960000000 1.0
C      1  0.5212940000000  0.5575040000000  0.4494120000000 1.0
C      1  0.5211750000000  0.4298460000000  0.4717320000000 1.0
C      1  0.5520610000000  0.4862450000000  0.4471970000000 1.0
C      1  0.5498900000000  0.4593190000000  0.5432500000000 1.0
C      1  0.5535980000000  0.5548820000000  0.5099880000000 1.0
C      1  0.5670620000000  0.4876320000000  0.4745520000000 1.0
C      1  0.5626540000000  0.4802450000000  0.5229230000000 1.0
C      1  0.5672550000000  0.5276080000000  0.4998690000000 1.0
C      1  0.5352560000000  0.4469320000000  0.5188360000000 1.0
C      1  0.5377580000000  0.5415310000000  0.5332900000000 1.0
C      1  0.5419510000000  0.5135160000000  0.4462140000000 1.0
C      1  0.5161010000000  0.4503490000000  0.5716820000000 1.0
C      1  0.5155790000000  0.5823630000000  0.5063670000000 1.0
C      1  0.5166160000000  0.4670700000000  0.4221270000000 1.0
C      1  0.4673700000000  0.4382970000000  0.5453130000000 1.0
C      1  0.4667890000000  0.5684400000000  0.5282970000000 1.0
C      1  0.4704130000000  0.4908700000000  0.4315880000000 1.0
C      1  0.5251300000000  0.4750460000000  0.4706340000000 1.0
C      1  0.5260560000000  0.4880920000000  0.5436770000000 1.0
C      1  0.5289370000000  0.5456280000000  0.4864000000000 1.0
C      1  0.4427000000000  0.4783420000000  0.5395140000000 1.0
C      1  0.4434380000000  0.5435250000000  0.4989450000000 1.0
C      1  0.4513700000000  0.4786210000000  0.4625370000000 1.0
C      1  0.5587640000000  0.4939840000000  0.4295340000000 1.0
C      1  0.5566450000000  0.4404020000000  0.5461550000000 1.0
C      1  0.5556550000000  0.5642900000000  0.5278360000000 1.0
C      1  0.4697220000000  0.4560770000000  0.5595960000000 1.0
C      1  0.4696650000000  0.5704300000000  0.5054080000000 1.0
C      1  0.4720160000000  0.4687920000000  0.4347630000000 1.0
C      1  0.5649410000000  0.5402290000000  0.4690780000000 1.0
C      1  0.5550980000000  0.4570250000000  0.4852290000000 1.0
C      1  0.5569990000000  0.5048880000000  0.5428030000000 1.0
C      1  0.4615360000000  0.5636480000000  0.5158170000000 1.0
C      1  0.4650730000000  0.4806280000000  0.4397560000000 1.0
C      1  0.4614240000000  0.4509130000000  0.5485220000000 1.0
C      1  0.4986730000000  0.5037510000000  0.5088990000000 1.0
C      1  0.4965410000000  0.5152980000000  0.4814800000000 1.0
C      1  0.4961970000000  0.4919750000000  0.5003260000000 1.0
C      1  0.4685580000000  0.5404870000000  0.5097800000000 1.0
C      1  0.4731580000000  0.4886510000000  0.4628380000000 1.0
C      1  0.4676760000000  0.4685360000000  0.5332630000000 1.0
C      1  0.5723510000000  0.4846150000000  0.5156900000000 1.0
C      1  0.5762000000000  0.5184640000000  0.4997570000000 1.0
C      1  0.5793000000000  0.4877290000000  0.4785290000000 1.0
C      1  0.5408310000000  0.5512650000000  0.4881580000000 1.0
C      1  0.5355870000000  0.4729220000000  0.4625340000000 1.0
C      1  0.5362370000000  0.4809050000000  0.5484440000000 1.0
C      1  0.5403970000000  0.5651880000000  0.4674270000000 1.0
C      1  0.5381980000000  0.4466580000000  0.4588100000000 1.0
C      1  0.5417510000000  0.4926450000000  0.5708980000000 1.0
END
