TITL C-358543-882-3 6.72581793996654 1000000 -3614.68622389453 0 0 520 (C1) n - 1
REM
REM in /home/nfs/bkarasulu/CARBON/AIRSS/Generating-Clusters/GAP-ML-2020/Higher-Symm/Selected-Sizes/Larger-Clusters/Only-C240
REM
REM
REM
REM
REM
REM ./C.cell (db1db5b03a21c153a00b653f6831bbfd)
REM
REM compiler GCC version 9.2.1 20190827 (Red Hat 9.2.1-1)
REM options -cpp -mtune=generic -march=x86-64 -g -O0 -fpre-include=/usr/include/finclude/math-vector-fortran.h
REM seed -1295580164 -1425749008 584176467 -1469621732 -1821701859 -1713317759 1942777853 448353699 1742116656 -1466032297 735041435 1981738029 1279854254 -375107378 2107896202 -1382808621 742198445 -1141172280 -363650257 220963425 -1483340428 -1436571882 361403326 1366010976 1502029465 -597112785 -150379694 -2052711477 1110487570 217569964 1325733966 -1487614850 -1613959431
REM
CELL 1.54180  100.00000  100.00000  100.00000   90.00000   90.00000   90.00000
LATT -1
SFAC C  
C      1  0.5015690000000  0.5447260000000  0.4318110000000 1.0
C      1  0.5451680000000  0.4317180000000  0.5017690000000 1.0
C      1  0.4322470000000  0.5016320000000  0.5445090000000 1.0
C      1  0.4982020000000  0.5443510000000  0.5677590000000 1.0
C      1  0.4984130000000  0.4550460000000  0.4319870000000 1.0
C      1  0.5013940000000  0.4552830000000  0.5678620000000 1.0
C      1  0.4553560000000  0.4324360000000  0.4979370000000 1.0
C      1  0.4551460000000  0.5682830000000  0.5016530000000 1.0
C      1  0.5444600000000  0.5676030000000  0.4978830000000 1.0
C      1  0.5679010000000  0.5014460000000  0.4553220000000 1.0
C      1  0.5676430000000  0.4980480000000  0.5445300000000 1.0
C      1  0.4321000000000  0.4984940000000  0.4555150000000 1.0
C      1  0.4322620000000  0.5446450000000  0.5018020000000 1.0
C      1  0.5015870000000  0.4316980000000  0.5449490000000 1.0
C      1  0.5448220000000  0.5015930000000  0.4318430000000 1.0
C      1  0.5675960000000  0.5444870000000  0.4979560000000 1.0
C      1  0.4323480000000  0.4553920000000  0.4979830000000 1.0
C      1  0.5680610000000  0.4553450000000  0.5015510000000 1.0
C      1  0.4986940000000  0.4321670000000  0.4553410000000 1.0
C      1  0.5013790000000  0.5678000000000  0.4552750000000 1.0
C      1  0.4982360000000  0.5677760000000  0.5443720000000 1.0
C      1  0.4551110000000  0.5015860000000  0.5681750000000 1.0
C      1  0.5444670000000  0.4979470000000  0.5676430000000 1.0
C      1  0.4551250000000  0.4981890000000  0.4319920000000 1.0
C      1  0.5374990000000  0.5148410000000  0.5269920000000 1.0
C      1  0.5146340000000  0.5269390000000  0.5375550000000 1.0
C      1  0.5268840000000  0.5375530000000  0.5148020000000 1.0
C      1  0.4622600000000  0.5149490000000  0.4729860000000 1.0
C      1  0.4623250000000  0.4849810000000  0.5270650000000 1.0
C      1  0.5378080000000  0.4849360000000  0.4729260000000 1.0
C      1  0.4849030000000  0.5271990000000  0.4622500000000 1.0
C      1  0.4849200000000  0.4728460000000  0.5377620000000 1.0
C      1  0.5151490000000  0.4726430000000  0.4623390000000 1.0
C      1  0.4726680000000  0.5378190000000  0.4849420000000 1.0
C      1  0.4729980000000  0.4622730000000  0.5150350000000 1.0
C      1  0.5274300000000  0.4621340000000  0.4851560000000 1.0
C      1  0.5268940000000  0.5148230000000  0.5375700000000 1.0
C      1  0.5374860000000  0.5269770000000  0.5148250000000 1.0
C      1  0.5146320000000  0.5375540000000  0.5269390000000 1.0
C      1  0.4727170000000  0.5149310000000  0.4623010000000 1.0
C      1  0.5273060000000  0.4849090000000  0.4622790000000 1.0
C      1  0.4727080000000  0.4848900000000  0.5377830000000 1.0
C      1  0.4622630000000  0.5271310000000  0.4850660000000 1.0
C      1  0.5378700000000  0.4728250000000  0.4850970000000 1.0
C      1  0.4624080000000  0.4728620000000  0.5149280000000 1.0
C      1  0.4848320000000  0.5377330000000  0.4728900000000 1.0
C      1  0.5152620000000  0.4621560000000  0.4730530000000 1.0
C      1  0.4850500000000  0.4621780000000  0.5272650000000 1.0
C      1  0.5734750000000  0.4752810000000  0.5073620000000 1.0
C      1  0.4751900000000  0.5071810000000  0.5731640000000 1.0
C      1  0.5071910000000  0.5733570000000  0.4751880000000 1.0
C      1  0.4272660000000  0.4754080000000  0.4925130000000 1.0
C      1  0.4270180000000  0.5246710000000  0.5074650000000 1.0
C      1  0.5727560000000  0.5245110000000  0.4924460000000 1.0
C      1  0.5245840000000  0.5073330000000  0.4275860000000 1.0
C      1  0.5244840000000  0.4923550000000  0.5728400000000 1.0
C      1  0.4753500000000  0.4924280000000  0.4276750000000 1.0
C      1  0.4926100000000  0.5734160000000  0.5242630000000 1.0
C      1  0.4923530000000  0.4262720000000  0.4749230000000 1.0
C      1  0.5076720000000  0.4275290000000  0.5248820000000 1.0
C      1  0.5071820000000  0.4752120000000  0.5734160000000 1.0
C      1  0.5733910000000  0.5073070000000  0.4752310000000 1.0
C      1  0.4752340000000  0.5731880000000  0.5072230000000 1.0
C      1  0.4925760000000  0.4752480000000  0.4276730000000 1.0
C      1  0.5073590000000  0.5245030000000  0.4275820000000 1.0
C      1  0.4925710000000  0.5242340000000  0.5734140000000 1.0
C      1  0.4270550000000  0.5073500000000  0.5245580000000 1.0
C      1  0.5727990000000  0.4925150000000  0.5245500000000 1.0
C      1  0.4266760000000  0.4927070000000  0.4754410000000 1.0
C      1  0.5244880000000  0.5727920000000  0.4923140000000 1.0
C      1  0.4750580000000  0.4268260000000  0.4919550000000 1.0
C      1  0.5250560000000  0.4274870000000  0.5077600000000 1.0
C      1  0.5094670000000  0.5572360000000  0.5466480000000 1.0
C      1  0.5573160000000  0.5468180000000  0.5095240000000 1.0
C      1  0.5468070000000  0.5095330000000  0.5573580000000 1.0
C      1  0.4899700000000  0.5575110000000  0.4528950000000 1.0
C      1  0.4898040000000  0.4420460000000  0.5472070000000 1.0
C      1  0.5100840000000  0.4423770000000  0.4531290000000 1.0
C      1  0.4424700000000  0.5471120000000  0.4902840000000 1.0
C      1  0.4425960000000  0.4530890000000  0.5095870000000 1.0
C      1  0.5577630000000  0.4528880000000  0.4901420000000 1.0
C      1  0.4527460000000  0.5099850000000  0.4423220000000 1.0
C      1  0.4527010000000  0.4898800000000  0.5577810000000 1.0
C      1  0.5472350000000  0.4898330000000  0.4421870000000 1.0
C      1  0.5467940000000  0.5573350000000  0.5094850000000 1.0
C      1  0.5094510000000  0.5466490000000  0.5572260000000 1.0
C      1  0.5573390000000  0.5095820000000  0.5468420000000 1.0
C      1  0.4527140000000  0.5579120000000  0.4899590000000 1.0
C      1  0.5474770000000  0.4420550000000  0.4899490000000 1.0
C      1  0.4531340000000  0.4425770000000  0.5095660000000 1.0
C      1  0.4898050000000  0.5471190000000  0.4421510000000 1.0
C      1  0.5102250000000  0.4527140000000  0.4423250000000 1.0
C      1  0.4899870000000  0.4528500000000  0.5575460000000 1.0
C      1  0.4424080000000  0.5098480000000  0.4531260000000 1.0
C      1  0.5576110000000  0.4900300000000  0.4529390000000 1.0
C      1  0.4424760000000  0.4901640000000  0.5469470000000 1.0
C      1  0.4502490000000  0.4666720000000  0.5080930000000 1.0
C      1  0.4663220000000  0.5083950000000  0.4500260000000 1.0
C      1  0.5084540000000  0.4498570000000  0.4669650000000 1.0
C      1  0.5501490000000  0.4666320000000  0.4918010000000 1.0
C      1  0.5496570000000  0.5332240000000  0.5080200000000 1.0
C      1  0.4501720000000  0.5334470000000  0.4918840000000 1.0
C      1  0.5331930000000  0.5079950000000  0.5497100000000 1.0
C      1  0.5336770000000  0.4914180000000  0.4499660000000 1.0
C      1  0.4662880000000  0.4912680000000  0.5501440000000 1.0
C      1  0.4914370000000  0.4498340000000  0.5336780000000 1.0
C      1  0.4915780000000  0.5499940000000  0.4666750000000 1.0
C      1  0.5079230000000  0.5498320000000  0.5329080000000 1.0
C      1  0.5086120000000  0.4662660000000  0.4500410000000 1.0
C      1  0.4499850000000  0.5082110000000  0.4668700000000 1.0
C      1  0.4668280000000  0.4501230000000  0.5081280000000 1.0
C      1  0.4916420000000  0.4666340000000  0.5500280000000 1.0
C      1  0.5079090000000  0.5329060000000  0.5498260000000 1.0
C      1  0.4914160000000  0.5335700000000  0.4499360000000 1.0
C      1  0.5496740000000  0.5080450000000  0.5332500000000 1.0
C      1  0.4502030000000  0.4917960000000  0.5333090000000 1.0
C      1  0.5500580000000  0.4916710000000  0.4667000000000 1.0
C      1  0.5339110000000  0.4498180000000  0.4915200000000 1.0
C      1  0.4662800000000  0.5502060000000  0.4913140000000 1.0
C      1  0.5331790000000  0.5496920000000  0.5079730000000 1.0
C      1  0.4635170000000  0.5636260000000  0.5133690000000 1.0
C      1  0.5633090000000  0.5130700000000  0.4635790000000 1.0
C      1  0.5130130000000  0.4635900000000  0.5633250000000 1.0
C      1  0.5360320000000  0.5629170000000  0.4861980000000 1.0
C      1  0.5370940000000  0.4365330000000  0.5136700000000 1.0
C      1  0.4639020000000  0.4370890000000  0.4863270000000 1.0
C      1  0.4369880000000  0.5132600000000  0.5361760000000 1.0
C      1  0.4366720000000  0.4868460000000  0.4637590000000 1.0
C      1  0.5629820000000  0.4863360000000  0.5361310000000 1.0
C      1  0.4865500000000  0.4632020000000  0.4367480000000 1.0
C      1  0.4865290000000  0.5361750000000  0.5633540000000 1.0
C      1  0.5134330000000  0.5365870000000  0.4365950000000 1.0
C      1  0.5129830000000  0.5632320000000  0.4635740000000 1.0
C      1  0.4634980000000  0.5133120000000  0.5635670000000 1.0
C      1  0.5634600000000  0.4636000000000  0.5131820000000 1.0
C      1  0.4865530000000  0.5633690000000  0.5362120000000 1.0
C      1  0.5135470000000  0.4365130000000  0.5369430000000 1.0
C      1  0.4870830000000  0.4366980000000  0.4636510000000 1.0
C      1  0.5366550000000  0.5134430000000  0.4366110000000 1.0
C      1  0.4633200000000  0.4863470000000  0.4367510000000 1.0
C      1  0.5360610000000  0.4862540000000  0.5629650000000 1.0
C      1  0.4370570000000  0.4638180000000  0.4863110000000 1.0
C      1  0.5629250000000  0.5360510000000  0.4862620000000 1.0
C      1  0.4370170000000  0.5362510000000  0.5133780000000 1.0
C      1  0.5003840000000  0.5105050000000  0.4512710000000 1.0
C      1  0.5109860000000  0.4511720000000  0.5007670000000 1.0
C      1  0.4512480000000  0.5006120000000  0.5106480000000 1.0
C      1  0.4993580000000  0.5101570000000  0.5490070000000 1.0
C      1  0.4996040000000  0.4893020000000  0.4513120000000 1.0
C      1  0.5001100000000  0.4894400000000  0.5490960000000 1.0
C      1  0.4896580000000  0.4510010000000  0.4996420000000 1.0
C      1  0.4890470000000  0.5489920000000  0.5003280000000 1.0
C      1  0.5104380000000  0.5487990000000  0.4992740000000 1.0
C      1  0.5490420000000  0.5002890000000  0.4893920000000 1.0
C      1  0.5487970000000  0.4994190000000  0.5104520000000 1.0
C      1  0.4510580000000  0.4997790000000  0.4897000000000 1.0
C      1  0.4512340000000  0.5108390000000  0.5007110000000 1.0
C      1  0.5007080000000  0.4511770000000  0.5107540000000 1.0
C      1  0.5105840000000  0.5003290000000  0.4512770000000 1.0
C      1  0.5487780000000  0.5104160000000  0.4994230000000 1.0
C      1  0.4512620000000  0.4895520000000  0.4996080000000 1.0
C      1  0.5490730000000  0.4893640000000  0.5003530000000 1.0
C      1  0.4999620000000  0.4508320000000  0.4897180000000 1.0
C      1  0.5000830000000  0.5490540000000  0.4894500000000 1.0
C      1  0.4993640000000  0.5489970000000  0.5101670000000 1.0
C      1  0.4890510000000  0.5003060000000  0.5490010000000 1.0
C      1  0.5104530000000  0.4992750000000  0.5488300000000 1.0
C      1  0.4894040000000  0.4994810000000  0.4513020000000 1.0
C      1  0.4437430000000  0.5356800000000  0.4539620000000 1.0
C      1  0.5358740000000  0.4537620000000  0.4436540000000 1.0
C      1  0.4539300000000  0.4437150000000  0.5354450000000 1.0
C      1  0.5559260000000  0.5354600000000  0.5457960000000 1.0
C      1  0.5562990000000  0.4641710000000  0.4538720000000 1.0
C      1  0.4437630000000  0.4642390000000  0.5458680000000 1.0
C      1  0.4641570000000  0.4537260000000  0.5561000000000 1.0
C      1  0.4641210000000  0.5460460000000  0.4435730000000 1.0
C      1  0.5353930000000  0.5457460000000  0.5559010000000 1.0
C      1  0.5462600000000  0.4435270000000  0.4642630000000 1.0
C      1  0.5457560000000  0.5559530000000  0.5353840000000 1.0
C      1  0.4537670000000  0.5563300000000  0.4641620000000 1.0
C      1  0.4538010000000  0.5356800000000  0.4436520000000 1.0
C      1  0.4438110000000  0.4539270000000  0.5354540000000 1.0
C      1  0.5358700000000  0.4436440000000  0.4539250000000 1.0
C      1  0.5457540000000  0.5354180000000  0.5559450000000 1.0
C      1  0.4537750000000  0.4640910000000  0.5561820000000 1.0
C      1  0.5461900000000  0.4641350000000  0.4436250000000 1.0
C      1  0.5563350000000  0.4537930000000  0.4642770000000 1.0
C      1  0.4437120000000  0.5460750000000  0.4643190000000 1.0
C      1  0.5559280000000  0.5458130000000  0.5354200000000 1.0
C      1  0.4641640000000  0.4435410000000  0.5459100000000 1.0
C      1  0.5354020000000  0.5559110000000  0.5457250000000 1.0
C      1  0.4641360000000  0.5562090000000  0.4537800000000 1.0
C      1  0.5138660000000  0.4656740000000  0.4161960000000 1.0
C      1  0.4654350000000  0.4162380000000  0.5135440000000 1.0
C      1  0.4161580000000  0.5140630000000  0.4657890000000 1.0
C      1  0.4858300000000  0.4653070000000  0.5838870000000 1.0
C      1  0.4860560000000  0.5340210000000  0.4161140000000 1.0
C      1  0.5139200000000  0.5342170000000  0.5836760000000 1.0
C      1  0.5342470000000  0.4160220000000  0.4863160000000 1.0
C      1  0.5342260000000  0.5835490000000  0.5136690000000 1.0
C      1  0.4655560000000  0.5840150000000  0.4858190000000 1.0
C      1  0.5835610000000  0.5138770000000  0.5342560000000 1.0
C      1  0.5839320000000  0.4859550000000  0.4655170000000 1.0
C      1  0.4162750000000  0.4860090000000  0.5341970000000 1.0
C      1  0.4163680000000  0.4656470000000  0.5137610000000 1.0
C      1  0.5140610000000  0.4160090000000  0.4654970000000 1.0
C      1  0.4657010000000  0.5136720000000  0.4161890000000 1.0
C      1  0.5839930000000  0.4655720000000  0.4859870000000 1.0
C      1  0.4162300000000  0.5344540000000  0.4862020000000 1.0
C      1  0.5835340000000  0.5342570000000  0.5137910000000 1.0
C      1  0.4861260000000  0.4160730000000  0.5338570000000 1.0
C      1  0.5139610000000  0.5836880000000  0.5342030000000 1.0
C      1  0.4858790000000  0.5839030000000  0.4653210000000 1.0
C      1  0.5342220000000  0.5137270000000  0.5835690000000 1.0
C      1  0.4654590000000  0.4857590000000  0.5839350000000 1.0
C      1  0.5341830000000  0.4860590000000  0.4161340000000 1.0
C      1  0.5498830000000  0.5586130000000  0.4680720000000 1.0
C      1  0.5587160000000  0.4683160000000  0.5500660000000 1.0
C      1  0.4693770000000  0.5516480000000  0.5605320000000 1.0
C      1  0.4496460000000  0.5594660000000  0.5314230000000 1.0
C      1  0.4501790000000  0.4412840000000  0.4682160000000 1.0
C      1  0.5516550000000  0.4391410000000  0.5315990000000 1.0
C      1  0.4402370000000  0.4691130000000  0.4485110000000 1.0
C      1  0.4411970000000  0.5309850000000  0.5504720000000 1.0
C      1  0.5597060000000  0.5308610000000  0.4484040000000 1.0
C      1  0.5311660000000  0.5514700000000  0.4390090000000 1.0
C      1  0.5308660000000  0.4484500000000  0.5598870000000 1.0
C      1  0.4687700000000  0.4482970000000  0.4391250000000 1.0
C      1  0.4694090000000  0.5605080000000  0.5516930000000 1.0
C      1  0.5499520000000  0.4681600000000  0.5587280000000 1.0
C      1  0.5586250000000  0.5499320000000  0.4681880000000 1.0
C      1  0.5307510000000  0.5596970000000  0.4483740000000 1.0
C      1  0.4692770000000  0.4400590000000  0.4484900000000 1.0
C      1  0.5313490000000  0.4390790000000  0.5516740000000 1.0
C      1  0.4484820000000  0.4686100000000  0.4391660000000 1.0
C      1  0.5514810000000  0.5312390000000  0.4390350000000 1.0
C      1  0.4496080000000  0.5313650000000  0.5594920000000 1.0
C      1  0.4412810000000  0.5504000000000  0.5312310000000 1.0
C      1  0.5598690000000  0.4485080000000  0.5310760000000 1.0
C      1  0.4414100000000  0.4499550000000  0.4682190000000 1.0
C      1  0.5050700000000  0.4643450000000  0.4844380000000 1.0
C      1  0.4646130000000  0.4842270000000  0.5046840000000 1.0
C      1  0.4841260000000  0.5046610000000  0.4645690000000 1.0
C      1  0.4954770000000  0.4644550000000  0.5159660000000 1.0
C      1  0.4949960000000  0.5355300000000  0.4842840000000 1.0
C      1  0.5045140000000  0.5354820000000  0.5154940000000 1.0
C      1  0.5356060000000  0.4841720000000  0.4952670000000 1.0
C      1  0.5353640000000  0.5156150000000  0.5045670000000 1.0
C      1  0.4645500000000  0.5158290000000  0.4953290000000 1.0
C      1  0.5155850000000  0.5045240000000  0.5354490000000 1.0
C      1  0.5158800000000  0.4951720000000  0.4645470000000 1.0
C      1  0.4839480000000  0.4952620000000  0.5355900000000 1.0
C      1  0.4844320000000  0.4644170000000  0.5048570000000 1.0
C      1  0.5048090000000  0.4840140000000  0.4645970000000 1.0
C      1  0.4644990000000  0.5047630000000  0.4843550000000 1.0
C      1  0.5161120000000  0.4644340000000  0.4955280000000 1.0
C      1  0.4839190000000  0.5355870000000  0.4953010000000 1.0
C      1  0.5155680000000  0.5354180000000  0.5045130000000 1.0
C      1  0.4950480000000  0.4842680000000  0.5355850000000 1.0
C      1  0.5045180000000  0.5154850000000  0.5354920000000 1.0
C      1  0.4952020000000  0.5158090000000  0.4645400000000 1.0
C      1  0.5353810000000  0.5045680000000  0.5156480000000 1.0
C      1  0.4645740000000  0.4952640000000  0.5157430000000 1.0
C      1  0.5355550000000  0.4951540000000  0.4842340000000 1.0
C      1  0.5111640000000  0.4993920000000  0.5218000000000 1.0
C      1  0.4992470000000  0.5218600000000  0.5112950000000 1.0
C      1  0.5217200000000  0.5111860000000  0.4993830000000 1.0
C      1  0.4886650000000  0.4993310000000  0.4781260000000 1.0
C      1  0.4885630000000  0.5004980000000  0.5218990000000 1.0
C      1  0.5113280000000  0.5004890000000  0.4780980000000 1.0
C      1  0.5003870000000  0.5218390000000  0.4886610000000 1.0
C      1  0.5005970000000  0.4780660000000  0.5114000000000 1.0
C      1  0.4995640000000  0.4780120000000  0.4887370000000 1.0
C      1  0.4781340000000  0.5112710000000  0.5005080000000 1.0
C      1  0.4782480000000  0.4886360000000  0.4994550000000 1.0
C      1  0.5218900000000  0.4886290000000  0.5005040000000 1.0
C      1  0.5217450000000  0.4993930000000  0.5112280000000 1.0
C      1  0.5111410000000  0.5217630000000  0.4993760000000 1.0
C      1  0.4992500000000  0.5112850000000  0.5218680000000 1.0
C      1  0.4781840000000  0.4993980000000  0.4887120000000 1.0
C      1  0.5218340000000  0.5004240000000  0.4886530000000 1.0
C      1  0.4781550000000  0.5004920000000  0.5112740000000 1.0
C      1  0.4885490000000  0.5218890000000  0.5005150000000 1.0
C      1  0.5114280000000  0.4780300000000  0.5006120000000 1.0
C      1  0.4887980000000  0.4780470000000  0.4994800000000 1.0
C      1  0.5005040000000  0.5112920000000  0.4781080000000 1.0
C      1  0.4994720000000  0.4885280000000  0.4781480000000 1.0
C      1  0.5004340000000  0.4886610000000  0.5219060000000 1.0
C      1  0.4721850000000  0.4811390000000  0.5950530000000 1.0
C      1  0.4813560000000  0.5950480000000  0.4720880000000 1.0
C      1  0.5950670000000  0.4724070000000  0.4814210000000 1.0
C      1  0.5274230000000  0.4815090000000  0.4049810000000 1.0
C      1  0.5275680000000  0.5183540000000  0.5947200000000 1.0
C      1  0.4724300000000  0.5181780000000  0.4049990000000 1.0
C      1  0.5185760000000  0.5947770000000  0.5274390000000 1.0
C      1  0.5183780000000  0.4050040000000  0.4726320000000 1.0
C      1  0.4816230000000  0.4050300000000  0.5268820000000 1.0
C      1  0.4051950000000  0.4722820000000  0.5183810000000 1.0
C      1  0.4050930000000  0.5277430000000  0.4816220000000 1.0
C      1  0.5946780000000  0.5275950000000  0.5184610000000 1.0
C      1  0.5950460000000  0.4814460000000  0.4723280000000 1.0
C      1  0.4723030000000  0.5951110000000  0.4811800000000 1.0
C      1  0.4812660000000  0.4720780000000  0.5950130000000 1.0
C      1  0.4051720000000  0.4813700000000  0.5274540000000 1.0
C      1  0.5946960000000  0.5185400000000  0.5275710000000 1.0
C      1  0.4050650000000  0.5186410000000  0.4725820000000 1.0
C      1  0.5275860000000  0.5947060000000  0.5183000000000 1.0
C      1  0.4724380000000  0.4051690000000  0.5179060000000 1.0
C      1  0.5273240000000  0.4049490000000  0.4818320000000 1.0
C      1  0.5183570000000  0.4724210000000  0.4050110000000 1.0
C      1  0.4815150000000  0.5272460000000  0.4049670000000 1.0
C      1  0.5185340000000  0.5274660000000  0.5947730000000 1.0
C      1  0.5785820000000  0.5008760000000  0.5360610000000 1.0
C      1  0.5008550000000  0.5359560000000  0.5788030000000 1.0
C      1  0.5360100000000  0.5785730000000  0.5006640000000 1.0
C      1  0.4210540000000  0.5010560000000  0.4639470000000 1.0
C      1  0.4212370000000  0.4990110000000  0.5360390000000 1.0
C      1  0.5790100000000  0.4989630000000  0.4637020000000 1.0
C      1  0.4990020000000  0.5358570000000  0.4211990000000 1.0
C      1  0.4988700000000  0.4636170000000  0.5789950000000 1.0
C      1  0.5009330000000  0.4638590000000  0.4213200000000 1.0
C      1  0.4637760000000  0.5790970000000  0.4988530000000 1.0
C      1  0.4635870000000  0.4212960000000  0.5005730000000 1.0
C      1  0.5362700000000  0.4210830000000  0.4992730000000 1.0
C      1  0.5360100000000  0.5007170000000  0.5786130000000 1.0
C      1  0.5785440000000  0.5360300000000  0.5007870000000 1.0
C      1  0.5009030000000  0.5788080000000  0.5359690000000 1.0
C      1  0.4639300000000  0.5007370000000  0.4213240000000 1.0
C      1  0.5359720000000  0.4990100000000  0.4212210000000 1.0
C      1  0.4637020000000  0.4987970000000  0.5790240000000 1.0
C      1  0.4212140000000  0.5362180000000  0.4992020000000 1.0
C      1  0.5791240000000  0.4637740000000  0.4990190000000 1.0
C      1  0.4214310000000  0.4638810000000  0.5008000000000 1.0
C      1  0.4988890000000  0.5789470000000  0.4635970000000 1.0
C      1  0.5010500000000  0.4208950000000  0.4635070000000 1.0
C      1  0.4990790000000  0.4211050000000  0.5360050000000 1.0
C      1  0.5715360000000  0.4671920000000  0.4780580000000 1.0
C      1  0.4670030000000  0.4778040000000  0.5715240000000 1.0
C      1  0.4779160000000  0.5714840000000  0.4670680000000 1.0
C      1  0.4287680000000  0.4673330000000  0.5216840000000 1.0
C      1  0.4286570000000  0.5327880000000  0.4782740000000 1.0
C      1  0.5711180000000  0.5325700000000  0.5216960000000 1.0
C      1  0.5327550000000  0.4779880000000  0.4285110000000 1.0
C      1  0.5325440000000  0.5216500000000  0.5711600000000 1.0
C      1  0.4671850000000  0.5217770000000  0.4285380000000 1.0
C      1  0.5217500000000  0.5711860000000  0.5324430000000 1.0
C      1  0.5220620000000  0.4284210000000  0.4673760000000 1.0
C      1  0.4780390000000  0.4284540000000  0.5325090000000 1.0
C      1  0.4778870000000  0.4670260000000  0.5714470000000 1.0
C      1  0.5715010000000  0.4780070000000  0.4672100000000 1.0
C      1  0.4670490000000  0.5716000000000  0.4778630000000 1.0
C      1  0.5219710000000  0.4671670000000  0.4285410000000 1.0
C      1  0.4779860000000  0.5325900000000  0.4284930000000 1.0
C      1  0.5217300000000  0.5324660000000  0.5711830000000 1.0
C      1  0.4287400000000  0.4781390000000  0.5325260000000 1.0
C      1  0.5711270000000  0.5217460000000  0.5325550000000 1.0
C      1  0.4286360000000  0.5219450000000  0.4674710000000 1.0
C      1  0.5325500000000  0.5711510000000  0.5216090000000 1.0
C      1  0.4672660000000  0.4285630000000  0.5216050000000 1.0
C      1  0.5329270000000  0.4283700000000  0.4781790000000 1.0
C      1  0.5606820000000  0.4999920000000  0.4805090000000 1.0
C      1  0.4998510000000  0.4804830000000  0.5606940000000 1.0
C      1  0.4797130000000  0.5600860000000  0.5000550000000 1.0
C      1  0.4399420000000  0.5002240000000  0.5196680000000 1.0
C      1  0.4394630000000  0.4999840000000  0.4807220000000 1.0
C      1  0.5598250000000  0.4996630000000  0.5198230000000 1.0
C      1  0.4998050000000  0.4795720000000  0.4406030000000 1.0
C      1  0.4996230000000  0.5192060000000  0.5604790000000 1.0
C      1  0.5001780000000  0.5202360000000  0.4405580000000 1.0
C      1  0.5197340000000  0.5598790000000  0.4995200000000 1.0
C      1  0.5207830000000  0.4405150000000  0.5005650000000 1.0
C      1  0.4804850000000  0.4396630000000  0.4996240000000 1.0
C      1  0.4797040000000  0.5000130000000  0.5600760000000 1.0
C      1  0.5607270000000  0.4804970000000  0.5000590000000 1.0
C      1  0.4998450000000  0.5606530000000  0.4804890000000 1.0
C      1  0.5203290000000  0.5001540000000  0.4405710000000 1.0
C      1  0.4796450000000  0.4996500000000  0.4406150000000 1.0
C      1  0.5197460000000  0.4995370000000  0.5599110000000 1.0
C      1  0.4402480000000  0.4801270000000  0.4996860000000 1.0
C      1  0.5598100000000  0.5197790000000  0.4996480000000 1.0
C      1  0.4398790000000  0.5197950000000  0.5003230000000 1.0
C      1  0.4996320000000  0.5604680000000  0.5192250000000 1.0
C      1  0.5004510000000  0.4405390000000  0.5205710000000 1.0
C      1  0.5000610000000  0.4389960000000  0.4808980000000 1.0
C      1  0.4390700000000  0.4862900000000  0.5240430000000 1.0
C      1  0.4860890000000  0.5241010000000  0.4389940000000 1.0
C      1  0.5244620000000  0.4388080000000  0.4863370000000 1.0
C      1  0.5612810000000  0.4861520000000  0.4757860000000 1.0
C      1  0.5608100000000  0.5136440000000  0.5240120000000 1.0
C      1  0.4388560000000  0.5138250000000  0.4760440000000 1.0
C      1  0.5135220000000  0.5238270000000  0.5610120000000 1.0
C      1  0.5138850000000  0.4756920000000  0.4390410000000 1.0
C      1  0.4860270000000  0.4757000000000  0.5612730000000 1.0
C      1  0.4760020000000  0.4388170000000  0.5135510000000 1.0
C      1  0.4755470000000  0.5612390000000  0.4860040000000 1.0
C      1  0.5239760000000  0.5608630000000  0.5134960000000 1.0
C      1  0.5242350000000  0.4860730000000  0.4390080000000 1.0
C      1  0.4389860000000  0.5242790000000  0.4864130000000 1.0
C      1  0.4862180000000  0.4388960000000  0.5241210000000 1.0
C      1  0.4755330000000  0.4859610000000  0.5612000000000 1.0
C      1  0.5239830000000  0.5135150000000  0.5608760000000 1.0
C      1  0.4757340000000  0.5137190000000  0.4390300000000 1.0
C      1  0.5608030000000  0.5240010000000  0.5136230000000 1.0
C      1  0.4391260000000  0.4759030000000  0.5136560000000 1.0
C      1  0.5613150000000  0.4757490000000  0.4862200000000 1.0
C      1  0.5138910000000  0.4385370000000  0.4760980000000 1.0
C      1  0.4860210000000  0.5612740000000  0.4757300000000 1.0
C      1  0.5135340000000  0.5610080000000  0.5238210000000 1.0
C      1  0.4813140000000  0.5255370000000  0.5415090000000 1.0
C      1  0.5285100000000  0.5390540000000  0.4824230000000 1.0
C      1  0.5391110000000  0.4823990000000  0.5286270000000 1.0
C      1  0.5159220000000  0.5324060000000  0.4612040000000 1.0
C      1  0.5166210000000  0.4729050000000  0.5402710000000 1.0
C      1  0.4840760000000  0.4673960000000  0.4613120000000 1.0
C      1  0.4705870000000  0.5394500000000  0.5159320000000 1.0
C      1  0.4715260000000  0.4607800000000  0.4825460000000 1.0
C      1  0.5325350000000  0.4611170000000  0.5159970000000 1.0
C      1  0.4597780000000  0.4832260000000  0.4730720000000 1.0
C      1  0.4606890000000  0.5175640000000  0.5285130000000 1.0
C      1  0.5402190000000  0.5166380000000  0.4729120000000 1.0
C      1  0.5390470000000  0.5285510000000  0.4824280000000 1.0
C      1  0.4813290000000  0.5415200000000  0.5255590000000 1.0
C      1  0.5285560000000  0.4823990000000  0.5391170000000 1.0
C      1  0.4606940000000  0.5285320000000  0.5175820000000 1.0
C      1  0.5403380000000  0.4728360000000  0.5167780000000 1.0
C      1  0.4609470000000  0.4712650000000  0.4825430000000 1.0
C      1  0.5165320000000  0.5401760000000  0.4729550000000 1.0
C      1  0.4834260000000  0.4596420000000  0.4730660000000 1.0
C      1  0.5159280000000  0.4611320000000  0.5325250000000 1.0
C      1  0.4675670000000  0.4838920000000  0.4613360000000 1.0
C      1  0.5324120000000  0.5159450000000  0.4612010000000 1.0
C      1  0.4705820000000  0.5159040000000  0.5394260000000 1.0
C      1  0.5069800000000  0.5321210000000  0.4493960000000 1.0
C      1  0.5325160000000  0.4492670000000  0.5071010000000 1.0
C      1  0.4491240000000  0.5074240000000  0.5300070000000 1.0
C      1  0.4920590000000  0.5292950000000  0.5514340000000 1.0
C      1  0.4930320000000  0.4676980000000  0.4495250000000 1.0
C      1  0.5070920000000  0.4705030000000  0.5516310000000 1.0
C      1  0.4698640000000  0.4491570000000  0.4925810000000 1.0
C      1  0.4685520000000  0.5511540000000  0.5067080000000 1.0
C      1  0.5303430000000  0.5506300000000  0.4924020000000 1.0
C      1  0.5516080000000  0.5071380000000  0.4704860000000 1.0
C      1  0.5506420000000  0.4924450000000  0.5304560000000 1.0
C      1  0.4484060000000  0.4927330000000  0.4706580000000 1.0
C      1  0.4491180000000  0.5300780000000  0.5074840000000 1.0
C      1  0.5070270000000  0.4492910000000  0.5324020000000 1.0
C      1  0.5321770000000  0.5069860000000  0.4494020000000 1.0
C      1  0.5506060000000  0.5303890000000  0.4924390000000 1.0
C      1  0.4493790000000  0.4694380000000  0.4925040000000 1.0
C      1  0.5517290000000  0.4704610000000  0.5072650000000 1.0
C      1  0.4929740000000  0.4482130000000  0.4708280000000 1.0
C      1  0.5070330000000  0.5515540000000  0.4705050000000 1.0
C      1  0.4920670000000  0.5514420000000  0.5293260000000 1.0
C      1  0.4685550000000  0.5066590000000  0.5511080000000 1.0
C      1  0.5303680000000  0.4924140000000  0.5506680000000 1.0
C      1  0.4677970000000  0.4928310000000  0.4495230000000 1.0
C      1  0.5378850000000  0.4715490000000  0.5638620000000 1.0
C      1  0.4721480000000  0.5648350000000  0.5388120000000 1.0
C      1  0.5638160000000  0.5378920000000  0.4715410000000 1.0
C      1  0.4611910000000  0.4717030000000  0.4347430000000 1.0
C      1  0.4617600000000  0.5280940000000  0.5646590000000 1.0
C      1  0.5387920000000  0.5280870000000  0.4345930000000 1.0
C      1  0.5274940000000  0.5639920000000  0.4610000000000 1.0
C      1  0.5282290000000  0.4345930000000  0.5390180000000 1.0
C      1  0.4725310000000  0.4359230000000  0.4611400000000 1.0
C      1  0.4363210000000  0.5382270000000  0.5279280000000 1.0
C      1  0.4361670000000  0.4619710000000  0.4715970000000 1.0
C      1  0.5641880000000  0.4610870000000  0.5277180000000 1.0
C      1  0.5639130000000  0.4716380000000  0.5380130000000 1.0
C      1  0.5378420000000  0.5637800000000  0.4714740000000 1.0
C      1  0.4721220000000  0.5387560000000  0.5648220000000 1.0
C      1  0.4358860000000  0.4723360000000  0.4611240000000 1.0
C      1  0.5640380000000  0.5275830000000  0.4610140000000 1.0
C      1  0.4362700000000  0.5278030000000  0.5382580000000 1.0
C      1  0.4617750000000  0.5646850000000  0.5281510000000 1.0
C      1  0.5390320000000  0.4346250000000  0.5283500000000 1.0
C      1  0.4622350000000  0.4362150000000  0.4715610000000 1.0
C      1  0.5280720000000  0.5387620000000  0.4345840000000 1.0
C      1  0.4718950000000  0.4610120000000  0.4347420000000 1.0
C      1  0.5275430000000  0.4610650000000  0.5641170000000 1.0
C      1  0.5444310000000  0.5235250000000  0.5631780000000 1.0
C      1  0.5234990000000  0.5630560000000  0.5442640000000 1.0
C      1  0.5631550000000  0.5444770000000  0.5235310000000 1.0
C      1  0.4551670000000  0.5238170000000  0.4363590000000 1.0
C      1  0.4550160000000  0.4758850000000  0.5636190000000 1.0
C      1  0.5448010000000  0.4759750000000  0.4362880000000 1.0
C      1  0.4760840000000  0.5633490000000  0.4552430000000 1.0
C      1  0.4759620000000  0.4361500000000  0.5446190000000 1.0
C      1  0.5239170000000  0.4365430000000  0.4555250000000 1.0
C      1  0.4366230000000  0.5446800000000  0.4763310000000 1.0
C      1  0.4366810000000  0.4553870000000  0.5235360000000 1.0
C      1  0.5635160000000  0.4552860000000  0.4762200000000 1.0
C      1  0.5631660000000  0.5235860000000  0.5444670000000 1.0
C      1  0.5444340000000  0.5631710000000  0.5234800000000 1.0
C      1  0.5234830000000  0.5442800000000  0.5630450000000 1.0
C      1  0.4366300000000  0.5237450000000  0.4555310000000 1.0
C      1  0.5634390000000  0.4761300000000  0.4553300000000 1.0
C      1  0.4366720000000  0.4762240000000  0.5444450000000 1.0
C      1  0.4550340000000  0.5637500000000  0.4759600000000 1.0
C      1  0.5449950000000  0.4361240000000  0.4760900000000 1.0
C      1  0.4554160000000  0.4366200000000  0.5234800000000 1.0
C      1  0.4759570000000  0.5446530000000  0.4362460000000 1.0
C      1  0.5240320000000  0.4551430000000  0.4363490000000 1.0
C      1  0.4760800000000  0.4552010000000  0.5633050000000 1.0
C      1  0.5797590000000  0.4851980000000  0.5148440000000 1.0
C      1  0.4850560000000  0.5144880000000  0.5799660000000 1.0
C      1  0.5797040000000  0.5148100000000  0.4851140000000 1.0
C      1  0.5145440000000  0.5144820000000  0.4209350000000 1.0
C      1  0.5147520000000  0.4850290000000  0.5797470000000 1.0
C      1  0.4851230000000  0.5799800000000  0.5145060000000 1.0
C      1  0.5152190000000  0.4209420000000  0.5151670000000 1.0
C      1  0.4204160000000  0.5148700000000  0.5148680000000 1.0
C      1  0.4203210000000  0.4851830000000  0.4852800000000 1.0
C      1  0.5147550000000  0.5797040000000  0.4849980000000 1.0
C      1  0.4833670000000  0.4196910000000  0.4832420000000 1.0
C      1  0.4853570000000  0.4852370000000  0.4210180000000 1.0
C      1  0.5286410000000  0.5286570000000  0.4597060000000 1.0
C      1  0.5284740000000  0.4593440000000  0.5285260000000 1.0
C      1  0.4713650000000  0.4711890000000  0.4598310000000 1.0
C      1  0.4752940000000  0.5362180000000  0.5362240000000 1.0
END
