TITL C-358542-8202-4 -0.766238213773121 1000000 -1605.89349775115 0 0 240 (C3) n - 1
REM
REM in /home/nfs/bkarasulu/CARBON/AIRSS/Generating-Clusters/GAP-ML-2020/Higher-Symm/Selected-Sizes/Larger-Clusters/Only-C240
REM
REM
REM
REM
REM
REM ./C.cell (db1db5b03a21c153a00b653f6831bbfd)
REM
REM compiler GCC version 9.2.1 20190827 (Red Hat 9.2.1-1)
REM options -cpp -mtune=generic -march=x86-64 -g -O0 -fpre-include=/usr/include/finclude/math-vector-fortran.h
REM seed -971469811 860605712 -484206274 -2059831999 -1456270516 336536011 -1285671362 -1567127582 258874857 1762771245 -618598060 -162487483 -1560585036 -1758144951 -883679409 -1097787496 -1206325077 -2084694805 -1789363236 1274368880 268419855 1411838242 1811351817 -1393531454 -173724833 300028059 2094345029 177562171 -1862739193 -493681651 -522638016 -1073110983 2074699979
REM
CELL 1.54180  100.00000  100.00000  100.00000   90.00000   90.00000   90.00000
LATT -1
SFAC C  
C      1  0.4920110000000  0.4164810000000  0.5321200000000 1.0
C      1  0.4919950000000  0.5695750000000  0.5562690000000 1.0
C      1  0.4919920000000  0.5139410000000  0.4116120000000 1.0
C      1  0.5124810000000  0.4229610000000  0.4721420000000 1.0
C      1  0.5124780000000  0.5143960000000  0.5806460000000 1.0
C      1  0.5124640000000  0.5626470000000  0.4472090000000 1.0
C      1  0.4643000000000  0.5618960000000  0.4671260000000 1.0
C      1  0.4643130000000  0.4405740000000  0.4628330000000 1.0
C      1  0.4643140000000  0.4975170000000  0.5700480000000 1.0
C      1  0.4428560000000  0.5021380000000  0.5605110000000 1.0
C      1  0.4428450000000  0.5513220000000  0.4678930000000 1.0
C      1  0.4428570000000  0.4465200000000  0.4716070000000 1.0
C      1  0.4642180000000  0.4769690000000  0.5640640000000 1.0
C      1  0.4642030000000  0.5669890000000  0.4879130000000 1.0
C      1  0.4642130000000  0.4560300000000  0.4480290000000 1.0
C      1  0.4554830000000  0.4513590000000  0.5375900000000 1.0
C      1  0.4554700000000  0.5568640000000  0.5233290000000 1.0
C      1  0.4554720000000  0.4917610000000  0.4390890000000 1.0
C      1  0.5186550000000  0.5597390000000  0.4588640000000 1.0
C      1  0.5186700000000  0.4345100000000  0.4688330000000 1.0
C      1  0.5186690000000  0.5057580000000  0.5722990000000 1.0
C      1  0.5490340000000  0.5262880000000  0.5680220000000 1.0
C      1  0.5490240000000  0.5457760000000  0.4432240000000 1.0
C      1  0.5490400000000  0.4279530000000  0.4887450000000 1.0
C      1  0.5493350000000  0.5588360000000  0.5019430000000 1.0
C      1  0.5493420000000  0.4722750000000  0.4480750000000 1.0
C      1  0.5493490000000  0.4689060000000  0.5499730000000 1.0
C      1  0.5283890000000  0.5709460000000  0.4817980000000 1.0
C      1  0.5284010000000  0.4487700000000  0.4476600000000 1.0
C      1  0.5284050000000  0.4802940000000  0.5705370000000 1.0
C      1  0.4327140000000  0.4691010000000  0.4923050000000 1.0
C      1  0.4327120000000  0.5087700000000  0.5306060000000 1.0
C      1  0.4327070000000  0.5221050000000  0.4771020000000 1.0
C      1  0.4326960000000  0.5354900000000  0.4838300000000 1.0
C      1  0.4327030000000  0.4682360000000  0.4773500000000 1.0
C      1  0.4327040000000  0.4962510000000  0.5388330000000 1.0
C      1  0.5684340000000  0.5453820000000  0.5099910000000 1.0
C      1  0.5684380000000  0.4859770000000  0.4557030000000 1.0
C      1  0.5684450000000  0.4686650000000  0.5342930000000 1.0
C      1  0.5642350000000  0.5480490000000  0.5225380000000 1.0
C      1  0.5642370000000  0.4955080000000  0.4471200000000 1.0
C      1  0.5642460000000  0.4564650000000  0.5303300000000 1.0
C      1  0.4554370000000  0.4862210000000  0.5707890000000 1.0
C      1  0.4554220000000  0.5681840000000  0.4765380000000 1.0
C      1  0.4554340000000  0.4455800000000  0.4526810000000 1.0
C      1  0.4570400000000  0.4320190000000  0.4876960000000 1.0
C      1  0.4570340000000  0.5233250000000  0.5650250000000 1.0
C      1  0.4570250000000  0.5446410000000  0.4472870000000 1.0
C      1  0.5252700000000  0.5626920000000  0.5096840000000 1.0
C      1  0.5252750000000  0.4770460000000  0.4408650000000 1.0
C      1  0.5252840000000  0.4602710000000  0.5494460000000 1.0
C      1  0.4857870000000  0.5128440000000  0.5370080000000 1.0
C      1  0.4857810000000  0.5256240000000  0.4703720000000 1.0
C      1  0.4857900000000  0.4615260000000  0.4926220000000 1.0
C      1  0.5609990000000  0.4751270000000  0.5449030000000 1.0
C      1  0.5609870000000  0.5513380000000  0.4990900000000 1.0
C      1  0.5609930000000  0.4735570000000  0.4559960000000 1.0
C      1  0.5377470000000  0.5377510000000  0.4438980000000 1.0
C      1  0.5377620000000  0.4325470000000  0.4953580000000 1.0
C      1  0.5377550000000  0.5297150000000  0.5607370000000 1.0
C      1  0.5833670000000  0.5277660000000  0.4968830000000 1.0
C      1  0.5833710000000  0.4834370000000  0.4775130000000 1.0
C      1  0.5833730000000  0.4888260000000  0.5255880000000 1.0
C      1  0.5000610000000  0.5634110000000  0.5474280000000 1.0
C      1  0.5000590000000  0.5093690000000  0.4213710000000 1.0
C      1  0.5000760000000  0.4272210000000  0.5312010000000 1.0
C      1  0.4894840000000  0.5122680000000  0.4746410000000 1.0
C      1  0.4894900000000  0.4719020000000  0.5020550000000 1.0
C      1  0.4894860000000  0.5158260000000  0.5233060000000 1.0
C      1  0.4742990000000  0.4489420000000  0.4561410000000 1.0
C      1  0.4743010000000  0.4875400000000  0.5661470000000 1.0
C      1  0.4742870000000  0.5635090000000  0.4777170000000 1.0
C      1  0.4770210000000  0.5579370000000  0.5122740000000 1.0
C      1  0.4770250000000  0.4816560000000  0.4436880000000 1.0
C      1  0.4770340000000  0.4603990000000  0.5440420000000 1.0
C      1  0.4674970000000  0.4654090000000  0.5061370000000 1.0
C      1  0.4674910000000  0.5226030000000  0.5268880000000 1.0
C      1  0.4674890000000  0.5119770000000  0.4669810000000 1.0
C      1  0.4455900000000  0.4815770000000  0.5258300000000 1.0
C      1  0.4455830000000  0.5315690000000  0.5030390000000 1.0
C      1  0.4455860000000  0.4868350000000  0.4711410000000 1.0
C      1  0.4506390000000  0.5582000000000  0.5348120000000 1.0
C      1  0.4506390000000  0.5010370000000  0.4321900000000 1.0
C      1  0.4506520000000  0.4407450000000  0.5330070000000 1.0
C      1  0.5209730000000  0.5459960000000  0.5495970000000 1.0
C      1  0.5209690000000  0.5199590000000  0.4353680000000 1.0
C      1  0.5209830000000  0.4340530000000  0.5150310000000 1.0
C      1  0.4439620000000  0.5600690000000  0.4789590000000 1.0
C      1  0.4439730000000  0.4517310000000  0.4584990000000 1.0
C      1  0.4439750000000  0.4881810000000  0.5625530000000 1.0
C      1  0.4627170000000  0.4612140000000  0.5442100000000 1.0
C      1  0.4627040000000  0.5576720000000  0.5114850000000 1.0
C      1  0.4627090000000  0.4811010000000  0.4443120000000 1.0
C      1  0.5882010000000  0.5056380000000  0.4869700000000 1.0
C      1  0.5882040000000  0.4859160000000  0.5016330000000 1.0
C      1  0.5882020000000  0.5084760000000  0.5113810000000 1.0
C      1  0.5295180000000  0.4677500000000  0.5747620000000 1.0
C      1  0.5294990000000  0.5808780000000  0.4905480000000 1.0
C      1  0.5295110000000  0.4513820000000  0.4346840000000 1.0
C      1  0.5041880000000  0.4996390000000  0.4306620000000 1.0
C      1  0.5042010000000  0.4401330000000  0.5349820000000 1.0
C      1  0.5041870000000  0.5602300000000  0.5343550000000 1.0
C      1  0.4772020000000  0.4186660000000  0.4987890000000 1.0
C      1  0.4771930000000  0.5396130000000  0.5710420000000 1.0
C      1  0.4771830000000  0.5417130000000  0.4301720000000 1.0
C      1  0.5348150000000  0.4917180000000  0.5648680000000 1.0
C      1  0.5348010000000  0.5603260000000  0.4747380000000 1.0
C      1  0.5348130000000  0.4479680000000  0.4603870000000 1.0
C      1  0.4444950000000  0.5055290000000  0.4932130000000 1.0
C      1  0.4444970000000  0.4913450000000  0.4986050000000 1.0
C      1  0.4444960000000  0.5031070000000  0.5081920000000 1.0
C      1  0.4458250000000  0.5365890000000  0.4465020000000 1.0
C      1  0.4458400000000  0.4353620000000  0.4950620000000 1.0
C      1  0.4458340000000  0.5280300000000  0.5584470000000 1.0
C      1  0.5862080000000  0.4641850000000  0.4916390000000 1.0
C      1  0.5862050000000  0.5106860000000  0.5351980000000 1.0
C      1  0.5862000000000  0.5251590000000  0.4731470000000 1.0
C      1  0.4333390000000  0.5417680000000  0.4707940000000 1.0
C      1  0.4333490000000  0.4538080000000  0.4784310000000 1.0
C      1  0.4333480000000  0.5044010000000  0.5507880000000 1.0
C      1  0.5618680000000  0.4888520000000  0.5464400000000 1.0
C      1  0.5618570000000  0.5458060000000  0.4864350000000 1.0
C      1  0.5618650000000  0.4653630000000  0.4671130000000 1.0
C      1  0.5460830000000  0.5145490000000  0.4834970000000 1.0
C      1  0.5460880000000  0.4784440000000  0.4956520000000 1.0
C      1  0.5460870000000  0.5070230000000  0.5208430000000 1.0
C      1  0.5648690000000  0.5331660000000  0.4827230000000 1.0
C      1  0.5648770000000  0.4684700000000  0.4799160000000 1.0
C      1  0.5648770000000  0.4983870000000  0.5373480000000 1.0
C      1  0.4567190000000  0.4930990000000  0.5267140000000 1.0
C      1  0.4567130000000  0.5265760000000  0.4926190000000 1.0
C      1  0.4567180000000  0.4803110000000  0.4806750000000 1.0
C      1  0.4326350000000  0.5288230000000  0.4640480000000 1.0
C      1  0.4326450000000  0.4544380000000  0.4930140000000 1.0
C      1  0.4326410000000  0.5167160000000  0.5429500000000 1.0
C      1  0.5796250000000  0.4701070000000  0.4815960000000 1.0
C      1  0.5796250000000  0.4990260000000  0.5350900000000 1.0
C      1  0.5796180000000  0.5308940000000  0.4832990000000 1.0
C      1  0.5554190000000  0.5228820000000  0.4834110000000 1.0
C      1  0.5554250000000  0.4742050000000  0.4884790000000 1.0
C      1  0.5554240000000  0.5029320000000  0.5281000000000 1.0
C      1  0.5292850000000  0.5281950000000  0.4396640000000 1.0
C      1  0.5293010000000  0.4336570000000  0.5057500000000 1.0
C      1  0.5292920000000  0.5381580000000  0.5545800000000 1.0
C      1  0.4570620000000  0.4688360000000  0.4486900000000 1.0
C      1  0.4570680000000  0.4711370000000  0.5526440000000 1.0
C      1  0.4570550000000  0.5600130000000  0.4986740000000 1.0
C      1  0.4387950000000  0.5420980000000  0.4951800000000 1.0
C      1  0.4388010000000  0.4747630000000  0.4659520000000 1.0
C      1  0.4388050000000  0.4831180000000  0.5388790000000 1.0
C      1  0.4593350000000  0.4673640000000  0.4777630000000 1.0
C      1  0.4593350000000  0.4970510000000  0.5393820000000 1.0
C      1  0.4593270000000  0.5355710000000  0.4828620000000 1.0
C      1  0.4398870000000  0.5251200000000  0.5129780000000 1.0
C      1  0.4398870000000  0.4986660000000  0.4717560000000 1.0
C      1  0.4398930000000  0.4761930000000  0.5152770000000 1.0
C      1  0.5877070000000  0.5113840000000  0.4736870000000 1.0
C      1  0.5877140000000  0.4715400000000  0.5032980000000 1.0
C      1  0.5877100000000  0.5171070000000  0.5229980000000 1.0
C      1  0.5843230000000  0.5304540000000  0.5206770000000 1.0
C      1  0.5843230000000  0.5026990000000  0.4632880000000 1.0
C      1  0.5843300000000  0.4668760000000  0.5160190000000 1.0
C      1  0.4887550000000  0.5595920000000  0.5155740000000 1.0
C      1  0.4887590000000  0.4836890000000  0.4406050000000 1.0
C      1  0.4887690000000  0.4567160000000  0.5438230000000 1.0
C      1  0.5132500000000  0.4579850000000  0.5482470000000 1.0
C      1  0.5132360000000  0.5627940000000  0.5122630000000 1.0
C      1  0.5132410000000  0.4792260000000  0.4394880000000 1.0
C      1  0.4449230000000  0.4661620000000  0.4565550000000 1.0
C      1  0.4449280000000  0.4792820000000  0.5510270000000 1.0
C      1  0.4449150000000  0.5545370000000  0.4924290000000 1.0
C      1  0.4618640000000  0.4557920000000  0.4837760000000 1.0
C      1  0.4618620000000  0.5080450000000  0.5463970000000 1.0
C      1  0.4618540000000  0.5361500000000  0.4698340000000 1.0
C      1  0.5875820000000  0.4915970000000  0.4884090000000 1.0
C      1  0.5875830000000  0.4941840000000  0.5130730000000 1.0
C      1  0.5875800000000  0.5142500000000  0.4985010000000 1.0
C      1  0.4949330000000  0.5358890000000  0.4708390000000 1.0
C      1  0.4949430000000  0.4568000000000  0.4835000000000 1.0
C      1  0.4949410000000  0.5073090000000  0.5456620000000 1.0
C      1  0.4679360000000  0.5313090000000  0.5688630000000 1.0
C      1  0.4679270000000  0.5439750000000  0.4384540000000 1.0
C      1  0.4679440000000  0.4247050000000  0.4926890000000 1.0
C      1  0.5786740000000  0.5350170000000  0.5087580000000 1.0
C      1  0.5786760000000  0.4900940000000  0.4652960000000 1.0
C      1  0.5786820000000  0.4749160000000  0.5259310000000 1.0
C      1  0.5331920000000  0.4373650000000  0.4691120000000 1.0
C      1  0.5331910000000  0.5045750000000  0.5696880000000 1.0
C      1  0.5331780000000  0.5580710000000  0.4611940000000 1.0
C      1  0.5113330000000  0.5116900000000  0.4303970000000 1.0
C      1  0.5113470000000  0.4338800000000  0.5246780000000 1.0
C      1  0.5113350000000  0.5544350000000  0.5449230000000 1.0
C      1  0.4711740000000  0.4573440000000  0.4946270000000 1.0
C      1  0.4711700000000  0.5166680000000  0.5396280000000 1.0
C      1  0.4711650000000  0.5259780000000  0.4657510000000 1.0
C      1  0.4573170000000  0.5088010000000  0.5612590000000 1.0
C      1  0.4573060000000  0.5486420000000  0.4617480000000 1.0
C      1  0.4573190000000  0.4425420000000  0.4770010000000 1.0
C      1  0.5029980000000  0.5019650000000  0.5533260000000 1.0
C      1  0.5029880000000  0.5452000000000  0.4716350000000 1.0
C      1  0.5029990000000  0.4528360000000  0.4750380000000 1.0
C      1  0.4576720000000  0.5120670000000  0.4903750000000 1.0
C      1  0.4576760000000  0.4856210000000  0.4943620000000 1.0
C      1  0.4576750000000  0.5022970000000  0.5152710000000 1.0
C      1  0.5128690000000  0.4975030000000  0.5618450000000 1.0
C      1  0.5128570000000  0.5548100000000  0.4712400000000 1.0
C      1  0.5128690000000  0.4476910000000  0.4669130000000 1.0
C      1  0.4650740000000  0.5069000000000  0.4800020000000 1.0
C      1  0.4650790000000  0.4792240000000  0.5040240000000 1.0
C      1  0.4650760000000  0.5138650000000  0.5159810000000 1.0
C      1  0.5221320000000  0.4545640000000  0.4585410000000 1.0
C      1  0.5221350000000  0.4868190000000  0.5600790000000 1.0
C      1  0.5221220000000  0.5586250000000  0.4813760000000 1.0
C      1  0.5570660000000  0.5020850000000  0.4392370000000 1.0
C      1  0.5570780000000  0.4463490000000  0.5285760000000 1.0
C      1  0.5570660000000  0.5515870000000  0.5321760000000 1.0
C      1  0.4361840000000  0.4786720000000  0.5023540000000 1.0
C      1  0.4361820000000  0.5126880000000  0.5172930000000 1.0
C      1  0.4361800000000  0.5086170000000  0.4803650000000 1.0
C      1  0.4779110000000  0.5191570000000  0.5170090000000 1.0
C      1  0.4779100000000  0.5051470000000  0.4749050000000 1.0
C      1  0.4779150000000  0.4756890000000  0.5080900000000 1.0
C      1  0.4362190000000  0.5292590000000  0.4504810000000 1.0
C      1  0.4362320000000  0.4424710000000  0.4994200000000 1.0
C      1  0.4362260000000  0.5282480000000  0.5501110000000 1.0
C      1  0.5060350000000  0.5215250000000  0.5887370000000 1.0
C      1  0.5060210000000  0.5660870000000  0.4369910000000 1.0
C      1  0.5060410000000  0.4123900000000  0.4742720000000 1.0
C      1  0.5018600000000  0.4867180000000  0.4368310000000 1.0
C      1  0.5018710000000  0.4519350000000  0.5430880000000 1.0
C      1  0.5018570000000  0.5613480000000  0.5200810000000 1.0
C      1  0.5399880000000  0.5497980000000  0.4524880000000 1.0
C      1  0.5400030000000  0.4339630000000  0.4806300000000 1.0
C      1  0.5399990000000  0.5162530000000  0.5668750000000 1.0
C      1  0.4847560000000  0.5185240000000  0.4023410000000 1.0
C      1  0.4847780000000  0.4061590000000  0.5327880000000 1.0
C      1  0.4847600000000  0.5753120000000  0.5648750000000 1.0
C      1  0.5381170000000  0.4749400000000  0.4438450000000 1.0
C      1  0.5381250000000  0.4639070000000  0.5497800000000 1.0
C      1  0.5381110000000  0.5611660000000  0.5063680000000 1.0
END
