TITL C-45665-1466-12 -0.0137968255286189 1000000 -1629.14671846179 0 0 240 (C1) n - 1
REM
REM in /home/chem/mssmkc/work/GAP20/Larger-Clusters/Only-C240/New
REM
REM
REM
REM
REM
REM ./C.cell (28c9a5b7c779176d5635a9b681e7a0e1)
REM
REM compiler GCC version 8.3.0
REM options -cpp -mtune=generic -march=x86-64 -g -O0
REM seed -925244892 -373687796 -135904610 -302184077 1857232252 -367190344 -1559181110 1119467013 1229337659 1947607554 1140410069 743883262 -800441002 1813932443 1965946851 -1224093563 1894467325 -1296738772 1972497022 -795818863 -1219644815 -109558757 326242202 1092299819 1187916323 1241853108 -1579541211 -192056920 -2140201424 877212967 -1526778974 -1198862684 1394924289
REM
CELL 1.54180  100.00000  100.00000  100.00000   90.00000   90.00000   90.00000
LATT -1
SFAC C  
C      1  0.5287440000000  0.5174320000000  0.5072820000000 1.0
C      1  0.4705480000000  0.5152510000000  0.5068310000000 1.0
C      1  0.5008270000000  0.4665260000000  0.5071540000000 1.0
C      1  0.5287540000000  0.5172710000000  0.4929580000000 1.0
C      1  0.4701310000000  0.5159160000000  0.4925280000000 1.0
C      1  0.5012240000000  0.4669740000000  0.4927570000000 1.0
C      1  0.5277650000000  0.4790290000000  0.5076060000000 1.0
C      1  0.4674470000000  0.4851880000000  0.5069520000000 1.0
C      1  0.5033620000000  0.5345480000000  0.5070890000000 1.0
C      1  0.5285920000000  0.4790940000000  0.4931710000000 1.0
C      1  0.4679280000000  0.4854610000000  0.4926750000000 1.0
C      1  0.5038980000000  0.5345310000000  0.4927940000000 1.0
C      1  0.5606580000000  0.5193010000000  0.5527470000000 1.0
C      1  0.4530060000000  0.5421560000000  0.5509750000000 1.0
C      1  0.4866650000000  0.4378970000000  0.5525870000000 1.0
C      1  0.5591660000000  0.5177620000000  0.4467330000000 1.0
C      1  0.4537370000000  0.5426320000000  0.4467180000000 1.0
C      1  0.4865650000000  0.4385400000000  0.4483400000000 1.0
C      1  0.5595670000000  0.4831790000000  0.5523580000000 1.0
C      1  0.4562040000000  0.4569170000000  0.5528220000000 1.0
C      1  0.4861260000000  0.5594650000000  0.5518440000000 1.0
C      1  0.5600440000000  0.4820050000000  0.4481780000000 1.0
C      1  0.4548360000000  0.4583430000000  0.4477340000000 1.0
C      1  0.4862960000000  0.5614720000000  0.4488320000000 1.0
C      1  0.4458730000000  0.5184230000000  0.4462810000000 1.0
C      1  0.5111460000000  0.4447810000000  0.4469300000000 1.0
C      1  0.5424470000000  0.5370150000000  0.4469370000000 1.0
C      1  0.4464700000000  0.5176140000000  0.5526320000000 1.0
C      1  0.5112650000000  0.4445960000000  0.5531330000000 1.0
C      1  0.5429530000000  0.5375540000000  0.5532970000000 1.0
C      1  0.4465210000000  0.4823010000000  0.4468780000000 1.0
C      1  0.5111940000000  0.5556150000000  0.4475090000000 1.0
C      1  0.5426760000000  0.4632450000000  0.4473540000000 1.0
C      1  0.4470520000000  0.4810000000000  0.5530260000000 1.0
C      1  0.5111360000000  0.5549300000000  0.5529680000000 1.0
C      1  0.5431570000000  0.4630870000000  0.5526130000000 1.0
C      1  0.5018620000000  0.5712540000000  0.5196590000000 1.0
C      1  0.4398890000000  0.4641710000000  0.5199280000000 1.0
C      1  0.5574320000000  0.4654530000000  0.5205630000000 1.0
C      1  0.5028950000000  0.5703920000000  0.4807560000000 1.0
C      1  0.4375650000000  0.4654330000000  0.4805380000000 1.0
C      1  0.5601800000000  0.4647410000000  0.4809530000000 1.0
C      1  0.5018790000000  0.4287740000000  0.5199890000000 1.0
C      1  0.4372810000000  0.5324660000000  0.5184460000000 1.0
C      1  0.5610670000000  0.5364510000000  0.5195710000000 1.0
C      1  0.5028170000000  0.4294730000000  0.4807570000000 1.0
C      1  0.4365360000000  0.5348290000000  0.4792250000000 1.0
C      1  0.5610420000000  0.5353350000000  0.4799290000000 1.0
C      1  0.5470190000000  0.4758060000000  0.4442900000000 1.0
C      1  0.4980860000000  0.5533530000000  0.4445030000000 1.0
C      1  0.4551030000000  0.4724350000000  0.4429770000000 1.0
C      1  0.5470010000000  0.4756730000000  0.5563710000000 1.0
C      1  0.4983050000000  0.5524020000000  0.5568580000000 1.0
C      1  0.4560430000000  0.4714450000000  0.5568800000000 1.0
C      1  0.5464690000000  0.5246400000000  0.4428330000000 1.0
C      1  0.4979450000000  0.4471050000000  0.4442700000000 1.0
C      1  0.4546800000000  0.5283260000000  0.4426980000000 1.0
C      1  0.5474490000000  0.5250030000000  0.5564110000000 1.0
C      1  0.4981230000000  0.4466880000000  0.5561970000000 1.0
C      1  0.4549760000000  0.5280470000000  0.5550620000000 1.0
C      1  0.4747610000000  0.5332150000000  0.5684070000000 1.0
C      1  0.4839450000000  0.4615320000000  0.5697410000000 1.0
C      1  0.5412450000000  0.5052570000000  0.5692300000000 1.0
C      1  0.4744280000000  0.5315190000000  0.4291240000000 1.0
C      1  0.4839350000000  0.4618360000000  0.4310920000000 1.0
C      1  0.5389260000000  0.5068630000000  0.4280710000000 1.0
C      1  0.4749940000000  0.4699570000000  0.5719290000000 1.0
C      1  0.4861870000000  0.5371110000000  0.5716220000000 1.0
C      1  0.5391200000000  0.4931640000000  0.5710430000000 1.0
C      1  0.4743900000000  0.4693110000000  0.4282500000000 1.0
C      1  0.4844010000000  0.5385580000000  0.4311790000000 1.0
C      1  0.5407250000000  0.4948010000000  0.4305740000000 1.0
C      1  0.4865710000000  0.4326040000000  0.5398860000000 1.0
C      1  0.5654210000000  0.5220980000000  0.5401570000000 1.0
C      1  0.4474990000000  0.5442440000000  0.5384710000000 1.0
C      1  0.4874230000000  0.4327180000000  0.4608510000000 1.0
C      1  0.5633890000000  0.5198820000000  0.4596720000000 1.0
C      1  0.4476750000000  0.5449620000000  0.4589690000000 1.0
C      1  0.4872790000000  0.5641730000000  0.5389220000000 1.0
C      1  0.5631450000000  0.4828350000000  0.5391930000000 1.0
C      1  0.4531350000000  0.4543640000000  0.5396820000000 1.0
C      1  0.4866370000000  0.5662480000000  0.4617240000000 1.0
C      1  0.5641600000000  0.4805040000000  0.4611730000000 1.0
C      1  0.4500610000000  0.4567170000000  0.4605890000000 1.0
C      1  0.5003680000000  0.5492020000000  0.4684320000000 1.0
C      1  0.4563650000000  0.4765900000000  0.4689580000000 1.0
C      1  0.5428200000000  0.4763300000000  0.4682890000000 1.0
C      1  0.5014710000000  0.5490640000000  0.5307880000000 1.0
C      1  0.4585000000000  0.4745470000000  0.5322670000000 1.0
C      1  0.5416770000000  0.4766320000000  0.5324490000000 1.0
C      1  0.5004490000000  0.4503390000000  0.4678590000000 1.0
C      1  0.4553470000000  0.5248080000000  0.4667550000000 1.0
C      1  0.5430470000000  0.5238200000000  0.4672190000000 1.0
C      1  0.4994570000000  0.4498690000000  0.5325970000000 1.0
C      1  0.4565630000000  0.5243540000000  0.5316110000000 1.0
C      1  0.5438220000000  0.5255290000000  0.5326460000000 1.0
C      1  0.5676020000000  0.4936220000000  0.5586680000000 1.0
C      1  0.4723830000000  0.5608780000000  0.5562820000000 1.0
C      1  0.4611880000000  0.4446520000000  0.5588830000000 1.0
C      1  0.5676800000000  0.4923970000000  0.4416990000000 1.0
C      1  0.4729450000000  0.5623740000000  0.4434020000000 1.0
C      1  0.4605880000000  0.4458780000000  0.4430800000000 1.0
C      1  0.5681700000000  0.5084890000000  0.5587010000000 1.0
C      1  0.4736620000000  0.4366020000000  0.5585640000000 1.0
C      1  0.4591550000000  0.5541890000000  0.5558340000000 1.0
C      1  0.5671560000000  0.5071880000000  0.4408570000000 1.0
C      1  0.4730950000000  0.4379400000000  0.4433830000000 1.0
C      1  0.4602010000000  0.5548080000000  0.4422010000000 1.0
C      1  0.5227630000000  0.4717550000000  0.5182120000000 1.0
C      1  0.5108720000000  0.5294970000000  0.5185160000000 1.0
C      1  0.4640070000000  0.4930410000000  0.5177610000000 1.0
C      1  0.5237010000000  0.4723400000000  0.4821590000000 1.0
C      1  0.5128180000000  0.5338200000000  0.4821980000000 1.0
C      1  0.4685540000000  0.4945680000000  0.4813140000000 1.0
C      1  0.5253380000000  0.5272110000000  0.5174880000000 1.0
C      1  0.5106520000000  0.4651260000000  0.5176900000000 1.0
C      1  0.4646710000000  0.5069050000000  0.5172550000000 1.0
C      1  0.5246260000000  0.5266000000000  0.4825660000000 1.0
C      1  0.5113760000000  0.4660150000000  0.4824300000000 1.0
C      1  0.4633170000000  0.5082030000000  0.4822950000000 1.0
C      1  0.5330240000000  0.4926110000000  0.5081180000000 1.0
C      1  0.4890790000000  0.5324710000000  0.5069340000000 1.0
C      1  0.4764630000000  0.4736110000000  0.5068390000000 1.0
C      1  0.5340230000000  0.4925780000000  0.4934950000000 1.0
C      1  0.4894730000000  0.5319380000000  0.4924020000000 1.0
C      1  0.4766970000000  0.4739280000000  0.4923030000000 1.0
C      1  0.5262240000000  0.5039000000000  0.5134120000000 1.0
C      1  0.4892460000000  0.4737150000000  0.5129780000000 1.0
C      1  0.4825670000000  0.5212600000000  0.5129210000000 1.0
C      1  0.5279500000000  0.5036930000000  0.4871040000000 1.0
C      1  0.4898420000000  0.4741980000000  0.4866140000000 1.0
C      1  0.4830190000000  0.5207610000000  0.4865320000000 1.0
C      1  0.4876290000000  0.4932750000000  0.5584830000000 1.0
C      1  0.5121880000000  0.4924450000000  0.5585030000000 1.0
C      1  0.5006710000000  0.5140760000000  0.5582630000000 1.0
C      1  0.4874660000000  0.4933440000000  0.4417050000000 1.0
C      1  0.5121290000000  0.4930730000000  0.4415000000000 1.0
C      1  0.4997280000000  0.5146110000000  0.4417810000000 1.0
C      1  0.4880290000000  0.5074890000000  0.5579320000000 1.0
C      1  0.5128470000000  0.5066920000000  0.5579320000000 1.0
C      1  0.4996180000000  0.4856420000000  0.5587250000000 1.0
C      1  0.4874220000000  0.5075550000000  0.4420730000000 1.0
C      1  0.5119920000000  0.5073320000000  0.4413890000000 1.0
C      1  0.4997200000000  0.4860000000000  0.4418070000000 1.0
C      1  0.5814010000000  0.4936850000000  0.4470730000000 1.0
C      1  0.4650150000000  0.5736370000000  0.4488020000000 1.0
C      1  0.4539930000000  0.4339630000000  0.4488330000000 1.0
C      1  0.5812820000000  0.4941040000000  0.5530400000000 1.0
C      1  0.4655500000000  0.5725530000000  0.5502900000000 1.0
C      1  0.4545150000000  0.4326560000000  0.5532620000000 1.0
C      1  0.5809170000000  0.5070870000000  0.4464380000000 1.0
C      1  0.4652520000000  0.4267080000000  0.4490710000000 1.0
C      1  0.4535270000000  0.5668810000000  0.4475490000000 1.0
C      1  0.5818890000000  0.5075100000000  0.5532760000000 1.0
C      1  0.4658030000000  0.4253550000000  0.5531290000000 1.0
C      1  0.4535550000000  0.5665650000000  0.5499850000000 1.0
C      1  0.5011290000000  0.5287110000000  0.4458800000000 1.0
C      1  0.4743630000000  0.4874360000000  0.4447210000000 1.0
C      1  0.5239370000000  0.4851210000000  0.4455690000000 1.0
C      1  0.5021750000000  0.5283080000000  0.5552610000000 1.0
C      1  0.4747540000000  0.4873040000000  0.5546950000000 1.0
C      1  0.5236150000000  0.4840070000000  0.5546810000000 1.0
C      1  0.5008500000000  0.4718430000000  0.4457900000000 1.0
C      1  0.4743620000000  0.5135300000000  0.4455920000000 1.0
C      1  0.5237520000000  0.5153700000000  0.4451700000000 1.0
C      1  0.5003500000000  0.4713870000000  0.5546540000000 1.0
C      1  0.4752680000000  0.5136730000000  0.5536940000000 1.0
C      1  0.5247180000000  0.5148320000000  0.5541440000000 1.0
C      1  0.4971180000000  0.4373210000000  0.4711010000000 1.0
C      1  0.5561120000000  0.5268640000000  0.4704370000000 1.0
C      1  0.4461880000000  0.5348060000000  0.4695570000000 1.0
C      1  0.4962560000000  0.4367680000000  0.5295050000000 1.0
C      1  0.5569780000000  0.5282330000000  0.5296910000000 1.0
C      1  0.4468080000000  0.5335530000000  0.5282370000000 1.0
C      1  0.4967620000000  0.5619780000000  0.4719380000000 1.0
C      1  0.5557900000000  0.4736780000000  0.4716630000000 1.0
C      1  0.4475720000000  0.4663790000000  0.4712910000000 1.0
C      1  0.4972630000000  0.5618640000000  0.5284620000000 1.0
C      1  0.5546200000000  0.4754820000000  0.5291290000000 1.0
C      1  0.4500970000000  0.4643310000000  0.5289490000000 1.0
C      1  0.5041270000000  0.5076850000000  0.4770260000000 1.0
C      1  0.4837450000000  0.4971230000000  0.4801210000000 1.0
C      1  0.5058490000000  0.4925010000000  0.4770620000000 1.0
C      1  0.5054130000000  0.5151000000000  0.5196450000000 1.0
C      1  0.4903000000000  0.4984230000000  0.5228650000000 1.0
C      1  0.5043300000000  0.4923530000000  0.5231500000000 1.0
C      1  0.4930480000000  0.4865160000000  0.4802580000000 1.0
C      1  0.4899660000000  0.5097910000000  0.4804540000000 1.0
C      1  0.5156500000000  0.5012380000000  0.4808480000000 1.0
C      1  0.4930090000000  0.4853680000000  0.5198060000000 1.0
C      1  0.4915460000000  0.5123430000000  0.5193320000000 1.0
C      1  0.5132740000000  0.5033580000000  0.5194690000000 1.0
C      1  0.5080880000000  0.4701740000000  0.5425300000000 1.0
C      1  0.5218560000000  0.5229910000000  0.5426380000000 1.0
C      1  0.4699750000000  0.5069830000000  0.5420380000000 1.0
C      1  0.5091160000000  0.4705880000000  0.4575560000000 1.0
C      1  0.5211020000000  0.5223250000000  0.4576560000000 1.0
C      1  0.4687900000000  0.5071580000000  0.4572310000000 1.0
C      1  0.5097850000000  0.5295220000000  0.5429760000000 1.0
C      1  0.5202360000000  0.4765870000000  0.5426580000000 1.0
C      1  0.4698410000000  0.4932280000000  0.5423600000000 1.0
C      1  0.5094290000000  0.5295680000000  0.4577140000000 1.0
C      1  0.5210120000000  0.4775530000000  0.4575560000000 1.0
C      1  0.4693090000000  0.4934580000000  0.4569120000000 1.0
C      1  0.4634550000000  0.5131970000000  0.5305610000000 1.0
C      1  0.5057550000000  0.4613200000000  0.5311500000000 1.0
C      1  0.5307510000000  0.5256710000000  0.5310520000000 1.0
C      1  0.4619410000000  0.5135780000000  0.4686940000000 1.0
C      1  0.5067810000000  0.4618120000000  0.4689900000000 1.0
C      1  0.5300130000000  0.5242150000000  0.4689730000000 1.0
C      1  0.4639020000000  0.4865140000000  0.5309840000000 1.0
C      1  0.5065950000000  0.5371710000000  0.5310870000000 1.0
C      1  0.5286600000000  0.4747220000000  0.5312240000000 1.0
C      1  0.4641580000000  0.4869230000000  0.4687760000000 1.0
C      1  0.5073220000000  0.5380010000000  0.4692230000000 1.0
C      1  0.5296830000000  0.4755100000000  0.4690660000000 1.0
C      1  0.5360750000000  0.4837010000000  0.5611780000000 1.0
C      1  0.4964330000000  0.5391050000000  0.5621730000000 1.0
C      1  0.4683460000000  0.4770450000000  0.5617920000000 1.0
C      1  0.5368780000000  0.4849930000000  0.4396010000000 1.0
C      1  0.4949890000000  0.5400160000000  0.4399770000000 1.0
C      1  0.4676900000000  0.4772390000000  0.4377380000000 1.0
C      1  0.5374390000000  0.5153520000000  0.5604670000000 1.0
C      1  0.4944720000000  0.4599590000000  0.5607390000000 1.0
C      1  0.4683810000000  0.5246840000000  0.5594980000000 1.0
C      1  0.5357810000000  0.5163050000000  0.4380310000000 1.0
C      1  0.4945330000000  0.4604900000000  0.4399390000000 1.0
C      1  0.4676620000000  0.5236570000000  0.4385280000000 1.0
C      1  0.4408760000000  0.5070550000000  0.4485770000000 1.0
C      1  0.5235210000000  0.4464740000000  0.4487050000000 1.0
C      1  0.5349980000000  0.5469500000000  0.4492600000000 1.0
C      1  0.4419040000000  0.5059330000000  0.5510030000000 1.0
C      1  0.5236600000000  0.4465890000000  0.5513800000000 1.0
C      1  0.5354290000000  0.5474840000000  0.5512010000000 1.0
C      1  0.4414550000000  0.4936420000000  0.4492700000000 1.0
C      1  0.5235920000000  0.5539930000000  0.4493000000000 1.0
C      1  0.5350050000000  0.4533290000000  0.4487150000000 1.0
C      1  0.4422410000000  0.4925260000000  0.5512390000000 1.0
C      1  0.5234770000000  0.5535860000000  0.5506010000000 1.0
C      1  0.5352890000000  0.4532400000000  0.5514010000000 1.0
END
