TITL C-45665-1466-69 92.8859069074585 1000000 -1650.57211402986 0 0 240 (C1) n - 1
REM
REM in /home/chem/mssmkc/work/GAP20/Larger-Clusters/Only-C240/New
REM
REM
REM
REM
REM
REM ./C.cell (28c9a5b7c779176d5635a9b681e7a0e1)
REM
REM compiler GCC version 8.3.0
REM options -cpp -mtune=generic -march=x86-64 -g -O0
REM seed -168269876 -367841374 1116386284 -787020455 -2056903289 1889298125 1409183859 -1712834400 243575491 1145755304 -362621364 -1350152326 1043504614 1387538151 294963855 1919092460 319492228 98388968 317126319 -396175236 -1752953729 -932398042 615212285 1348315140 -663365185 1683386519 2045310307 1564248305 -1332442847 -949840002 -1554477638 -1709422208 705181750
REM
CELL 1.54180  100.00000  100.00000  100.00000   90.00000   90.00000   90.00000
LATT -1
SFAC C  
C      1  0.5638700000000  0.5131060000000  0.4834080000000 1.0
C      1  0.5632420000000  0.4771230000000  0.5152990000000 1.0
C      1  0.5428570000000  0.4507150000000  0.4813190000000 1.0
C      1  0.5137720000000  0.4347050000000  0.5159560000000 1.0
C      1  0.4783850000000  0.4375790000000  0.4841050000000 1.0
C      1  0.4494870000000  0.4559700000000  0.5176770000000 1.0
C      1  0.4351290000000  0.4868740000000  0.4845990000000 1.0
C      1  0.4361190000000  0.5214530000000  0.5176110000000 1.0
C      1  0.4565050000000  0.5480960000000  0.4834790000000 1.0
C      1  0.4864910000000  0.5657740000000  0.5166490000000 1.0
C      1  0.5207350000000  0.5627960000000  0.4839820000000 1.0
C      1  0.5496440000000  0.5439530000000  0.5171740000000 1.0
C      1  0.4953810000000  0.5721450000000  0.5086840000000 1.0
C      1  0.5311900000000  0.5639730000000  0.4925330000000 1.0
C      1  0.5595610000000  0.5394740000000  0.5089970000000 1.0
C      1  0.5701040000000  0.5043210000000  0.4915280000000 1.0
C      1  0.5639290000000  0.4664390000000  0.5070140000000 1.0
C      1  0.5387370000000  0.4408640000000  0.4896800000000 1.0
C      1  0.5046890000000  0.4282950000000  0.5081640000000 1.0
C      1  0.4680440000000  0.4362600000000  0.4927450000000 1.0
C      1  0.4394520000000  0.4605180000000  0.5098610000000 1.0
C      1  0.4286960000000  0.4948480000000  0.4935440000000 1.0
C      1  0.4353030000000  0.5323010000000  0.5094110000000 1.0
C      1  0.4598660000000  0.5579890000000  0.4922810000000 1.0
C      1  0.5352740000000  0.5387230000000  0.5617200000000 1.0
C      1  0.5562950000000  0.5242870000000  0.4425770000000 1.0
C      1  0.5455720000000  0.4931200000000  0.5571460000000 1.0
C      1  0.5497330000000  0.4598690000000  0.4413810000000 1.0
C      1  0.5145080000000  0.4525100000000  0.5606590000000 1.0
C      1  0.4859380000000  0.4450940000000  0.4391910000000 1.0
C      1  0.4729410000000  0.4635560000000  0.5587120000000 1.0
C      1  0.4493120000000  0.4789150000000  0.4412420000000 1.0
C      1  0.4517930000000  0.5123670000000  0.5616440000000 1.0
C      1  0.4550160000000  0.5368660000000  0.4384780000000 1.0
C      1  0.4820600000000  0.5425720000000  0.5584010000000 1.0
C      1  0.5153740000000  0.5519690000000  0.4384790000000 1.0
C      1  0.5591010000000  0.5141520000000  0.4517900000000 1.0
C      1  0.5495130000000  0.4824550000000  0.5488980000000 1.0
C      1  0.5398540000000  0.4554630000000  0.4499810000000 1.0
C      1  0.5110610000000  0.4450280000000  0.5495470000000 1.0
C      1  0.4792080000000  0.4441460000000  0.4513350000000 1.0
C      1  0.4614560000000  0.4661580000000  0.5508060000000 1.0
C      1  0.4443840000000  0.4889330000000  0.4497510000000 1.0
C      1  0.4470570000000  0.5187150000000  0.5502870000000 1.0
C      1  0.4622240000000  0.5425720000000  0.4488500000000 1.0
C      1  0.4898220000000  0.5512110000000  0.5503870000000 1.0
C      1  0.5206110000000  0.5549350000000  0.4509960000000 1.0
C      1  0.5419910000000  0.5359490000000  0.5498110000000 1.0
C      1  0.5451230000000  0.5599130000000  0.4573200000000 1.0
C      1  0.5647740000000  0.5246360000000  0.5451340000000 1.0
C      1  0.5719370000000  0.4919220000000  0.4546100000000 1.0
C      1  0.5516640000000  0.4571710000000  0.5469640000000 1.0
C      1  0.5243070000000  0.4347280000000  0.4527080000000 1.0
C      1  0.4906760000000  0.4306680000000  0.5459520000000 1.0
C      1  0.4541020000000  0.4413120000000  0.4568320000000 1.0
C      1  0.4383570000000  0.4771140000000  0.5488150000000 1.0
C      1  0.4329740000000  0.5118870000000  0.4505150000000 1.0
C      1  0.4451360000000  0.5435640000000  0.5462270000000 1.0
C      1  0.4776580000000  0.5637540000000  0.4508970000000 1.0
C      1  0.5105160000000  0.5658720000000  0.5481200000000 1.0
C      1  0.5086740000000  0.5529060000000  0.5074820000000 1.0
C      1  0.5348760000000  0.5409090000000  0.4928860000000 1.0
C      1  0.5496570000000  0.5183260000000  0.5072160000000 1.0
C      1  0.5519660000000  0.4896020000000  0.4916690000000 1.0
C      1  0.5407010000000  0.4655290000000  0.5056150000000 1.0
C      1  0.5172380000000  0.4492240000000  0.4917850000000 1.0
C      1  0.4907890000000  0.4471090000000  0.5074370000000 1.0
C      1  0.4639770000000  0.4592630000000  0.4930640000000 1.0
C      1  0.4495230000000  0.4815950000000  0.5084400000000 1.0
C      1  0.4468340000000  0.5097640000000  0.4934820000000 1.0
C      1  0.4584780000000  0.5338110000000  0.5074690000000 1.0
C      1  0.4820750000000  0.5506680000000  0.4922540000000 1.0
C      1  0.5275330000000  0.4359620000000  0.5111700000000 1.0
C      1  0.4911570000000  0.4314860000000  0.4875450000000 1.0
C      1  0.4573310000000  0.4446020000000  0.5131060000000 1.0
C      1  0.4361270000000  0.4729230000000  0.4885940000000 1.0
C      1  0.4303180000000  0.5087330000000  0.5134130000000 1.0
C      1  0.4445470000000  0.5405380000000  0.4873200000000 1.0
C      1  0.4727540000000  0.5643540000000  0.5119680000000 1.0
C      1  0.5080250000000  0.5689790000000  0.4875280000000 1.0
C      1  0.5418030000000  0.5555000000000  0.5129180000000 1.0
C      1  0.5631250000000  0.5270610000000  0.4875130000000 1.0
C      1  0.5688500000000  0.4898420000000  0.5111300000000 1.0
C      1  0.5545370000000  0.4585710000000  0.4851720000000 1.0
C      1  0.4300840000000  0.4837450000000  0.5414200000000 1.0
C      1  0.4304250000000  0.5221990000000  0.4580040000000 1.0
C      1  0.4496600000000  0.5534680000000  0.5394430000000 1.0
C      1  0.4857790000000  0.5711380000000  0.4579830000000 1.0
C      1  0.5202060000000  0.5692810000000  0.5403530000000 1.0
C      1  0.5551540000000  0.5551310000000  0.4638640000000 1.0
C      1  0.5709630000000  0.5157120000000  0.5382430000000 1.0
C      1  0.5733770000000  0.4807620000000  0.4611540000000 1.0
C      1  0.5497060000000  0.4469890000000  0.5392790000000 1.0
C      1  0.5154080000000  0.4282850000000  0.4595480000000 1.0
C      1  0.4797220000000  0.4297010000000  0.5393690000000 1.0
C      1  0.4442090000000  0.4467450000000  0.4631180000000 1.0
C      1  0.5118520000000  0.5420540000000  0.5293530000000 1.0
C      1  0.5330150000000  0.5310890000000  0.4697700000000 1.0
C      1  0.5423780000000  0.5097070000000  0.5292070000000 1.0
C      1  0.5417120000000  0.4870690000000  0.4688930000000 1.0
C      1  0.5300120000000  0.4678070000000  0.5278360000000 1.0
C      1  0.5081520000000  0.4572460000000  0.4700930000000 1.0
C      1  0.4879110000000  0.4573130000000  0.5297790000000 1.0
C      1  0.4653320000000  0.4692600000000  0.4699740000000 1.0
C      1  0.4576770000000  0.4899370000000  0.5300840000000 1.0
C      1  0.4580150000000  0.5131760000000  0.4716150000000 1.0
C      1  0.4692540000000  0.5319810000000  0.5297230000000 1.0
C      1  0.4909970000000  0.5433810000000  0.4705650000000 1.0
C      1  0.5449180000000  0.4398740000000  0.5297140000000 1.0
C      1  0.5071570000000  0.4249330000000  0.4686740000000 1.0
C      1  0.4702440000000  0.4312760000000  0.5309090000000 1.0
C      1  0.4374930000000  0.4540120000000  0.4712420000000 1.0
C      1  0.4258900000000  0.4915460000000  0.5320880000000 1.0
C      1  0.4311800000000  0.5304740000000  0.4678240000000 1.0
C      1  0.4553510000000  0.5605080000000  0.5303960000000 1.0
C      1  0.4930680000000  0.5751060000000  0.4676670000000 1.0
C      1  0.5292310000000  0.5684700000000  0.5312640000000 1.0
C      1  0.5616310000000  0.5468840000000  0.4712140000000 1.0
C      1  0.5741820000000  0.5070340000000  0.5294680000000 1.0
C      1  0.5701910000000  0.4709070000000  0.4687680000000 1.0
C      1  0.5376310000000  0.5544020000000  0.4991210000000 1.0
C      1  0.5587020000000  0.5283700000000  0.5013900000000 1.0
C      1  0.5652010000000  0.4935340000000  0.4976090000000 1.0
C      1  0.5536180000000  0.4626500000000  0.4992170000000 1.0
C      1  0.5279160000000  0.4401760000000  0.4973260000000 1.0
C      1  0.4949300000000  0.4344830000000  0.5012470000000 1.0
C      1  0.4613360000000  0.4457250000000  0.4992670000000 1.0
C      1  0.4404600000000  0.4717490000000  0.5024520000000 1.0
C      1  0.4338220000000  0.5055300000000  0.4997080000000 1.0
C      1  0.4452770000000  0.5367120000000  0.5014700000000 1.0
C      1  0.4717490000000  0.5597110000000  0.4982950000000 1.0
C      1  0.5046130000000  0.5657260000000  0.5013490000000 1.0
C      1  0.5121510000000  0.5406440000000  0.5015450000000 1.0
C      1  0.5250540000000  0.5338970000000  0.5004120000000 1.0
C      1  0.5408990000000  0.5092090000000  0.5010970000000 1.0
C      1  0.5412460000000  0.4947420000000  0.4994900000000 1.0
C      1  0.5283200000000  0.4688790000000  0.5000190000000 1.0
C      1  0.5160220000000  0.4609610000000  0.4996380000000 1.0
C      1  0.4868580000000  0.4592470000000  0.5015810000000 1.0
C      1  0.4739920000000  0.4660700000000  0.5005440000000 1.0
C      1  0.4583060000000  0.4905780000000  0.5022280000000 1.0
C      1  0.4577770000000  0.5051120000000  0.5011220000000 1.0
C      1  0.4708510000000  0.5309900000000  0.5014430000000 1.0
C      1  0.4830400000000  0.5387250000000  0.4998970000000 1.0
C      1  0.5052270000000  0.5273610000000  0.5015640000000 1.0
C      1  0.5185130000000  0.5205260000000  0.5012920000000 1.0
C      1  0.5259180000000  0.5088320000000  0.5012380000000 1.0
C      1  0.5264020000000  0.4938910000000  0.5005770000000 1.0
C      1  0.5202190000000  0.4814810000000  0.5005440000000 1.0
C      1  0.5077020000000  0.4732290000000  0.5008640000000 1.0
C      1  0.4938990000000  0.4724380000000  0.5014030000000 1.0
C      1  0.4806650000000  0.4793720000000  0.5013790000000 1.0
C      1  0.4732520000000  0.4910570000000  0.5018190000000 1.0
C      1  0.4726720000000  0.5060180000000  0.5016350000000 1.0
C      1  0.4789240000000  0.5183160000000  0.5016590000000 1.0
C      1  0.4914190000000  0.5264890000000  0.5011700000000 1.0
C      1  0.5384490000000  0.5030500000000  0.5598230000000 1.0
C      1  0.5585120000000  0.4633240000000  0.4330240000000 1.0
C      1  0.5111830000000  0.4605960000000  0.5697460000000 1.0
C      1  0.4891530000000  0.4480100000000  0.4272570000000 1.0
C      1  0.4849870000000  0.4624220000000  0.5617900000000 1.0
C      1  0.4556960000000  0.4711010000000  0.4337380000000 1.0
C      1  0.4604500000000  0.5114960000000  0.5707740000000 1.0
C      1  0.4495610000000  0.5326320000000  0.4279860000000 1.0
C      1  0.4752230000000  0.5327470000000  0.5618110000000 1.0
C      1  0.5134350000000  0.5478710000000  0.4266180000000 1.0
C      1  0.5291880000000  0.5405640000000  0.5726140000000 1.0
C      1  0.5505460000000  0.5326000000000  0.4350560000000 1.0
C      1  0.5016840000000  0.4348490000000  0.5501790000000 1.0
C      1  0.4658500000000  0.4399180000000  0.4526740000000 1.0
C      1  0.4489180000000  0.4719040000000  0.5534980000000 1.0
C      1  0.4375640000000  0.5007010000000  0.4467990000000 1.0
C      1  0.4430390000000  0.5319860000000  0.5504620000000 1.0
C      1  0.4696570000000  0.5545700000000  0.4477840000000 1.0
C      1  0.5008800000000  0.5592510000000  0.5530870000000 1.0
C      1  0.5334370000000  0.5603900000000  0.4528160000000 1.0
C      1  0.5553530000000  0.5318440000000  0.5490920000000 1.0
C      1  0.5678520000000  0.5032800000000  0.4510500000000 1.0
C      1  0.5511770000000  0.4689170000000  0.5516720000000 1.0
C      1  0.5328170000000  0.4432920000000  0.4493320000000 1.0
C      1  0.4589290000000  0.4792150000000  0.4665630000000 1.0
C      1  0.4564450000000  0.5010440000000  0.5355700000000 1.0
C      1  0.4626500000000  0.5230750000000  0.4655490000000 1.0
C      1  0.4788910000000  0.5390650000000  0.5327030000000 1.0
C      1  0.5020590000000  0.5446040000000  0.4650180000000 1.0
C      1  0.5219980000000  0.5371420000000  0.5346180000000 1.0
C      1  0.5396570000000  0.5217160000000  0.4651850000000 1.0
C      1  0.5436700000000  0.4975600000000  0.5312030000000 1.0
C      1  0.5368990000000  0.4765610000000  0.4641890000000 1.0
C      1  0.5214020000000  0.4614800000000  0.5341870000000 1.0
C      1  0.4967590000000  0.4559780000000  0.4652050000000 1.0
C      1  0.4771450000000  0.4625480000000  0.5327900000000 1.0
C      1  0.5641250000000  0.4630540000000  0.4766150000000 1.0
C      1  0.5382780000000  0.4360170000000  0.5196590000000 1.0
C      1  0.4992630000000  0.4255070000000  0.4784810000000 1.0
C      1  0.4629300000000  0.4354700000000  0.5215630000000 1.0
C      1  0.4344950000000  0.4623400000000  0.4802200000000 1.0
C      1  0.4254370000000  0.4994690000000  0.5222040000000 1.0
C      1  0.4351780000000  0.5364960000000  0.4781780000000 1.0
C      1  0.4620100000000  0.5642920000000  0.5203800000000 1.0
C      1  0.4999490000000  0.5749370000000  0.4783170000000 1.0
C      1  0.5363750000000  0.5644790000000  0.5216490000000 1.0
C      1  0.5647760000000  0.5375890000000  0.4791250000000 1.0
C      1  0.5740850000000  0.4988940000000  0.5198590000000 1.0
C      1  0.5354910000000  0.5356890000000  0.5370480000000 1.0
C      1  0.5504820000000  0.5138170000000  0.4632530000000 1.0
C      1  0.5492020000000  0.4857270000000  0.5350850000000 1.0
C      1  0.5354040000000  0.4632110000000  0.4618040000000 1.0
C      1  0.5137290000000  0.4503210000000  0.5366260000000 1.0
C      1  0.4846620000000  0.4497970000000  0.4634310000000 1.0
C      1  0.4643090000000  0.4641160000000  0.5371030000000 1.0
C      1  0.4484600000000  0.4873120000000  0.4634130000000 1.0
C      1  0.4504780000000  0.5133300000000  0.5375690000000 1.0
C      1  0.4638530000000  0.5364370000000  0.4622520000000 1.0
C      1  0.4865390000000  0.5495910000000  0.5367110000000 1.0
C      1  0.5143350000000  0.5504840000000  0.4631950000000 1.0
C      1  0.4668520000000  0.5445200000000  0.4740570000000 1.0
C      1  0.4928510000000  0.5565590000000  0.5257340000000 1.0
C      1  0.5220690000000  0.5515470000000  0.4753950000000 1.0
C      1  0.5437480000000  0.5335850000000  0.5252620000000 1.0
C      1  0.5545850000000  0.5064270000000  0.4748700000000 1.0
C      1  0.5519890000000  0.4766360000000  0.5241760000000 1.0
C      1  0.5318920000000  0.4555050000000  0.4735030000000 1.0
C      1  0.5076060000000  0.4442170000000  0.5248530000000 1.0
C      1  0.4767060000000  0.4488420000000  0.4755120000000 1.0
C      1  0.4547770000000  0.4661160000000  0.5264550000000 1.0
C      1  0.4431930000000  0.4940890000000  0.4751210000000 1.0
C      1  0.4479820000000  0.5214480000000  0.5256740000000 1.0
C      1  0.5311680000000  0.5415180000000  0.4785800000000 1.0
C      1  0.5455650000000  0.5205030000000  0.5209410000000 1.0
C      1  0.5502200000000  0.4936140000000  0.4775180000000 1.0
C      1  0.5409720000000  0.4693200000000  0.5195810000000 1.0
C      1  0.5188670000000  0.4528160000000  0.4774610000000 1.0
C      1  0.4951810000000  0.4492170000000  0.5210120000000 1.0
C      1  0.4675030000000  0.4586910000000  0.4787340000000 1.0
C      1  0.4535700000000  0.4793920000000  0.5221650000000 1.0
C      1  0.4487240000000  0.5062720000000  0.4792010000000 1.0
C      1  0.4585030000000  0.5293660000000  0.5211720000000 1.0
C      1  0.4800870000000  0.5472820000000  0.4779500000000 1.0
C      1  0.5049050000000  0.5508780000000  0.5213290000000 1.0
END
