TITL C-45664-8239-20 -1.77913711712258 1000000 -3598.60621587814 0 0 520 (C1) n - 1
REM
REM in /home/chem/mssmkc/work/GAP20/Larger-Clusters/Only-C240/New
REM
REM
REM
REM
REM
REM ./C.cell (28c9a5b7c779176d5635a9b681e7a0e1)
REM
REM compiler GCC version 8.3.0
REM options -cpp -mtune=generic -march=x86-64 -g -O0
REM seed -2105359846 75679814 -1014818578 1184720705 -509270457 -1484838576 241898669 -125395314 -1620077113 -1300556682 461488048 1863836400 911219167 1455098060 297436611 -289183215 -1437480945 1983314802 1909429754 1212634374 261261393 -1888920392 1473116241 -1640559444 -1070913955 1029201714 974452306 -909193671 -735662863 1291642373 1786190428 -1421688678 1562573644
REM
CELL 1.54180  100.00000  100.00000  100.00000   90.00000   90.00000   90.00000
LATT -1
SFAC C  
C      1  0.5504880000000  0.5163990000000  0.4374650000000 1.0
C      1  0.4381300000000  0.5509810000000  0.5168000000000 1.0
C      1  0.5166600000000  0.4383170000000  0.5510200000000 1.0
C      1  0.5507340000000  0.4829530000000  0.5612740000000 1.0
C      1  0.4503560000000  0.4838700000000  0.4388280000000 1.0
C      1  0.4484720000000  0.5167670000000  0.5614800000000 1.0
C      1  0.4382010000000  0.4484920000000  0.4827350000000 1.0
C      1  0.5613460000000  0.4487480000000  0.5169010000000 1.0
C      1  0.5609250000000  0.5496650000000  0.4834680000000 1.0
C      1  0.5165160000000  0.5610500000000  0.4487770000000 1.0
C      1  0.4826690000000  0.5612050000000  0.5510150000000 1.0
C      1  0.4832060000000  0.4371240000000  0.4487030000000 1.0
C      1  0.5043750000000  0.5239480000000  0.4827870000000 1.0
C      1  0.4826520000000  0.5047550000000  0.5242040000000 1.0
C      1  0.5239870000000  0.4828330000000  0.5048350000000 1.0
C      1  0.5054080000000  0.4754400000000  0.5169620000000 1.0
C      1  0.4940390000000  0.4748070000000  0.4836870000000 1.0
C      1  0.4945910000000  0.5242240000000  0.5165180000000 1.0
C      1  0.4831600000000  0.4941510000000  0.4752480000000 1.0
C      1  0.5161950000000  0.4948070000000  0.5243280000000 1.0
C      1  0.5169120000000  0.5056820000000  0.4755270000000 1.0
C      1  0.5240660000000  0.5166490000000  0.4948390000000 1.0
C      1  0.4752960000000  0.5169450000000  0.5056060000000 1.0
C      1  0.4747920000000  0.4835140000000  0.4944690000000 1.0
C      1  0.5734580000000  0.5305410000000  0.5282830000000 1.0
C      1  0.5283190000000  0.5738030000000  0.5307970000000 1.0
C      1  0.5304840000000  0.5284150000000  0.5738850000000 1.0
C      1  0.5735530000000  0.4689090000000  0.4711820000000 1.0
C      1  0.4257790000000  0.4690250000000  0.5283620000000 1.0
C      1  0.4261910000000  0.5307900000000  0.4709820000000 1.0
C      1  0.5283760000000  0.4258610000000  0.4691130000000 1.0
C      1  0.4712480000000  0.4261380000000  0.5307020000000 1.0
C      1  0.4710830000000  0.5738930000000  0.4691940000000 1.0
C      1  0.5297150000000  0.4720280000000  0.4262410000000 1.0
C      1  0.4688260000000  0.4712590000000  0.5737480000000 1.0
C      1  0.4667930000000  0.5309560000000  0.4240770000000 1.0
C      1  0.4822050000000  0.4739070000000  0.5404630000000 1.0
C      1  0.5403650000000  0.4822840000000  0.4740270000000 1.0
C      1  0.4737360000000  0.5404910000000  0.4822420000000 1.0
C      1  0.4821720000000  0.5260630000000  0.4589230000000 1.0
C      1  0.5171090000000  0.5258370000000  0.5406800000000 1.0
C      1  0.5169620000000  0.4739030000000  0.4598560000000 1.0
C      1  0.5402090000000  0.5173380000000  0.5259050000000 1.0
C      1  0.4594130000000  0.5174630000000  0.4741540000000 1.0
C      1  0.4589900000000  0.4823150000000  0.5259420000000 1.0
C      1  0.4739680000000  0.4594830000000  0.5171410000000 1.0
C      1  0.5257050000000  0.4590750000000  0.4824950000000 1.0
C      1  0.5255120000000  0.5404980000000  0.5176300000000 1.0
C      1  0.4998760000000  0.5291410000000  0.4210720000000 1.0
C      1  0.4222240000000  0.5000240000000  0.5276090000000 1.0
C      1  0.5277160000000  0.4222950000000  0.5001500000000 1.0
C      1  0.4998820000000  0.4720330000000  0.5772940000000 1.0
C      1  0.4992110000000  0.4725580000000  0.4231560000000 1.0
C      1  0.4994170000000  0.5277010000000  0.5773090000000 1.0
C      1  0.4224630000000  0.4997670000000  0.4715210000000 1.0
C      1  0.5768930000000  0.4996590000000  0.5275490000000 1.0
C      1  0.5770500000000  0.4999780000000  0.4717960000000 1.0
C      1  0.5277360000000  0.5770920000000  0.4994250000000 1.0
C      1  0.4719270000000  0.5771830000000  0.5002020000000 1.0
C      1  0.4719300000000  0.4223130000000  0.4999950000000 1.0
C      1  0.5215350000000  0.4505500000000  0.4556320000000 1.0
C      1  0.4559460000000  0.5216930000000  0.4501740000000 1.0
C      1  0.4505630000000  0.4554250000000  0.5216620000000 1.0
C      1  0.5214910000000  0.5491400000000  0.5445740000000 1.0
C      1  0.4781670000000  0.5490400000000  0.4551670000000 1.0
C      1  0.4779190000000  0.4506530000000  0.5443250000000 1.0
C      1  0.4551350000000  0.4779690000000  0.5491650000000 1.0
C      1  0.5440170000000  0.4779760000000  0.4507430000000 1.0
C      1  0.5441250000000  0.5216980000000  0.5492150000000 1.0
C      1  0.4506050000000  0.5444700000000  0.4778460000000 1.0
C      1  0.5488830000000  0.5444250000000  0.5220060000000 1.0
C      1  0.5490110000000  0.4552900000000  0.4781000000000 1.0
C      1  0.5118190000000  0.4567360000000  0.4887760000000 1.0
C      1  0.4874610000000  0.5120300000000  0.4564830000000 1.0
C      1  0.4566600000000  0.4886130000000  0.5121130000000 1.0
C      1  0.5115590000000  0.5428510000000  0.5114090000000 1.0
C      1  0.4875220000000  0.5428510000000  0.4885190000000 1.0
C      1  0.4878910000000  0.4572130000000  0.5110230000000 1.0
C      1  0.4883630000000  0.4877900000000  0.5428630000000 1.0
C      1  0.5108450000000  0.4877620000000  0.4577570000000 1.0
C      1  0.5109480000000  0.5119150000000  0.5429250000000 1.0
C      1  0.4568500000000  0.5112430000000  0.4881880000000 1.0
C      1  0.5424200000000  0.5111640000000  0.5119970000000 1.0
C      1  0.5426340000000  0.4885450000000  0.4878410000000 1.0
C      1  0.4620980000000  0.5131770000000  0.5399390000000 1.0
C      1  0.5397630000000  0.4622720000000  0.5132470000000 1.0
C      1  0.5129100000000  0.5393920000000  0.4625680000000 1.0
C      1  0.4596940000000  0.4889640000000  0.4617730000000 1.0
C      1  0.5371320000000  0.4867250000000  0.5396520000000 1.0
C      1  0.5372040000000  0.5136100000000  0.4595880000000 1.0
C      1  0.5379480000000  0.5393810000000  0.4890790000000 1.0
C      1  0.4597660000000  0.5374750000000  0.5131850000000 1.0
C      1  0.4596190000000  0.4622490000000  0.4863530000000 1.0
C      1  0.5130330000000  0.4599670000000  0.5374660000000 1.0
C      1  0.4859870000000  0.4589300000000  0.4623860000000 1.0
C      1  0.4865000000000  0.5395780000000  0.5374660000000 1.0
C      1  0.5233670000000  0.4525710000000  0.5283810000000 1.0
C      1  0.5273380000000  0.5230140000000  0.4525190000000 1.0
C      1  0.4523960000000  0.5283890000000  0.5235160000000 1.0
C      1  0.5231130000000  0.5465020000000  0.4716910000000 1.0
C      1  0.4760160000000  0.5471200000000  0.5285610000000 1.0
C      1  0.4760450000000  0.4519650000000  0.4717030000000 1.0
C      1  0.5282340000000  0.4762700000000  0.5472160000000 1.0
C      1  0.4704300000000  0.4736580000000  0.4510710000000 1.0
C      1  0.4713190000000  0.5233300000000  0.5470190000000 1.0
C      1  0.4528320000000  0.4717010000000  0.4764310000000 1.0
C      1  0.5467800000000  0.4715570000000  0.5234010000000 1.0
C      1  0.5488050000000  0.5290730000000  0.4743050000000 1.0
C      1  0.5191030000000  0.5470470000000  0.4525120000000 1.0
C      1  0.4516470000000  0.5189330000000  0.5475080000000 1.0
C      1  0.5473610000000  0.4518830000000  0.5190630000000 1.0
C      1  0.5189780000000  0.4522670000000  0.5476850000000 1.0
C      1  0.4810350000000  0.4511460000000  0.4513790000000 1.0
C      1  0.4802870000000  0.5472500000000  0.5474990000000 1.0
C      1  0.4562180000000  0.4787410000000  0.4527830000000 1.0
C      1  0.5472340000000  0.4805940000000  0.5473200000000 1.0
C      1  0.5481400000000  0.5184480000000  0.4515700000000 1.0
C      1  0.5469380000000  0.5433760000000  0.4789790000000 1.0
C      1  0.4520480000000  0.5476160000000  0.5192120000000 1.0
C      1  0.4522790000000  0.4512600000000  0.4810630000000 1.0
C      1  0.4385120000000  0.4776920000000  0.5243080000000 1.0
C      1  0.5243170000000  0.4385930000000  0.4779650000000 1.0
C      1  0.4805150000000  0.5226430000000  0.4376440000000 1.0
C      1  0.4388620000000  0.5221140000000  0.4753430000000 1.0
C      1  0.5606560000000  0.5219430000000  0.5242650000000 1.0
C      1  0.5608350000000  0.4777350000000  0.4754400000000 1.0
C      1  0.5240410000000  0.5609710000000  0.5221440000000 1.0
C      1  0.4753110000000  0.5610520000000  0.4776650000000 1.0
C      1  0.4754010000000  0.4389090000000  0.5218320000000 1.0
C      1  0.4775920000000  0.4753860000000  0.5609990000000 1.0
C      1  0.5215180000000  0.4752790000000  0.4391730000000 1.0
C      1  0.5217010000000  0.5243070000000  0.5611380000000 1.0
C      1  0.5188280000000  0.5357240000000  0.4328620000000 1.0
C      1  0.4310390000000  0.5226780000000  0.5377450000000 1.0
C      1  0.5375790000000  0.4312790000000  0.5227340000000 1.0
C      1  0.5225450000000  0.4620170000000  0.5683680000000 1.0
C      1  0.4768280000000  0.4613520000000  0.4306290000000 1.0
C      1  0.4769030000000  0.5375830000000  0.5682450000000 1.0
C      1  0.4332180000000  0.4771720000000  0.4617190000000 1.0
C      1  0.5679790000000  0.4771580000000  0.5376470000000 1.0
C      1  0.5690170000000  0.5226490000000  0.4614970000000 1.0
C      1  0.5377830000000  0.5662310000000  0.4769580000000 1.0
C      1  0.4616720000000  0.5683000000000  0.5228460000000 1.0
C      1  0.4622480000000  0.4306300000000  0.4774270000000 1.0
C      1  0.5644200000000  0.5221050000000  0.5095150000000 1.0
C      1  0.5094630000000  0.5651280000000  0.5223190000000 1.0
C      1  0.5220430000000  0.5096720000000  0.5651720000000 1.0
C      1  0.5649630000000  0.4774390000000  0.4900050000000 1.0
C      1  0.4344540000000  0.4772790000000  0.5096970000000 1.0
C      1  0.4345590000000  0.5223220000000  0.4899040000000 1.0
C      1  0.5097380000000  0.4344610000000  0.4776910000000 1.0
C      1  0.4899800000000  0.4347640000000  0.5222290000000 1.0
C      1  0.4899130000000  0.5650840000000  0.4773750000000 1.0
C      1  0.5212450000000  0.4899320000000  0.4355560000000 1.0
C      1  0.4772480000000  0.4899830000000  0.5651110000000 1.0
C      1  0.4840310000000  0.5085730000000  0.4419510000000 1.0
C      1  0.4534460000000  0.5683370000000  0.4875840000000 1.0
C      1  0.4873890000000  0.4535840000000  0.5683300000000 1.0
C      1  0.5680370000000  0.4873240000000  0.4533950000000 1.0
C      1  0.4534860000000  0.4314020000000  0.5123720000000 1.0
C      1  0.5461440000000  0.4312850000000  0.4876220000000 1.0
C      1  0.5460160000000  0.5681430000000  0.5120710000000 1.0
C      1  0.4867960000000  0.5463930000000  0.4313760000000 1.0
C      1  0.5119640000000  0.5461800000000  0.5684500000000 1.0
C      1  0.5121240000000  0.4535930000000  0.4315460000000 1.0
C      1  0.5680720000000  0.5122010000000  0.5461120000000 1.0
C      1  0.4318300000000  0.5122760000000  0.4533690000000 1.0
C      1  0.4311380000000  0.4874700000000  0.5461540000000 1.0
C      1  0.5276500000000  0.5379010000000  0.4449360000000 1.0
C      1  0.4446360000000  0.5287930000000  0.5392300000000 1.0
C      1  0.5390470000000  0.4448610000000  0.5288900000000 1.0
C      1  0.5287710000000  0.4605440000000  0.5548090000000 1.0
C      1  0.4709540000000  0.4589430000000  0.4441080000000 1.0
C      1  0.4706270000000  0.5389050000000  0.5546620000000 1.0
C      1  0.4466400000000  0.4700500000000  0.4607920000000 1.0
C      1  0.5543910000000  0.4709010000000  0.5389930000000 1.0
C      1  0.5555550000000  0.5285320000000  0.4592510000000 1.0
C      1  0.5387340000000  0.5526510000000  0.4700920000000 1.0
C      1  0.4602630000000  0.5547270000000  0.5290550000000 1.0
C      1  0.4607560000000  0.4441410000000  0.4713590000000 1.0
C      1  0.4291670000000  0.4709260000000  0.4750250000000 1.0
C      1  0.4758650000000  0.4277760000000  0.4712960000000 1.0
C      1  0.4712900000000  0.4754850000000  0.4280860000000 1.0
C      1  0.4282140000000  0.5288630000000  0.5243210000000 1.0
C      1  0.5719180000000  0.5284360000000  0.4755640000000 1.0
C      1  0.5709720000000  0.4710530000000  0.5242640000000 1.0
C      1  0.4750670000000  0.5712060000000  0.5289690000000 1.0
C      1  0.5245720000000  0.5701820000000  0.4708550000000 1.0
C      1  0.5241170000000  0.4283740000000  0.5288910000000 1.0
C      1  0.4707460000000  0.5241760000000  0.5712300000000 1.0
C      1  0.5277500000000  0.5228110000000  0.4285500000000 1.0
C      1  0.5286490000000  0.4754590000000  0.5713090000000 1.0
C      1  0.4572180000000  0.4318740000000  0.5271870000000 1.0
C      1  0.5267920000000  0.4575220000000  0.4319660000000 1.0
C      1  0.4321970000000  0.5272320000000  0.4569420000000 1.0
C      1  0.4571140000000  0.5680370000000  0.4726350000000 1.0
C      1  0.5423860000000  0.5679850000000  0.5271690000000 1.0
C      1  0.5424000000000  0.4316770000000  0.4726820000000 1.0
C      1  0.5268990000000  0.5424770000000  0.5681350000000 1.0
C      1  0.4718680000000  0.5432770000000  0.4318260000000 1.0
C      1  0.4724390000000  0.4572250000000  0.5679570000000 1.0
C      1  0.4315360000000  0.4725390000000  0.5424750000000 1.0
C      1  0.5676860000000  0.4724580000000  0.4571140000000 1.0
C      1  0.5677420000000  0.5270710000000  0.5424400000000 1.0
C      1  0.4745040000000  0.5403750000000  0.5150800000000 1.0
C      1  0.5148040000000  0.4747300000000  0.5404380000000 1.0
C      1  0.5404310000000  0.5159950000000  0.4743810000000 1.0
C      1  0.4743870000000  0.4590590000000  0.4850110000000 1.0
C      1  0.5249930000000  0.4593010000000  0.5149270000000 1.0
C      1  0.5239160000000  0.5404900000000  0.4858540000000 1.0
C      1  0.5138960000000  0.5245340000000  0.4590650000000 1.0
C      1  0.4847830000000  0.5247870000000  0.5401880000000 1.0
C      1  0.4835040000000  0.4735990000000  0.4596510000000 1.0
C      1  0.5398780000000  0.4849960000000  0.5248480000000 1.0
C      1  0.4585090000000  0.4858580000000  0.4756100000000 1.0
C      1  0.4591570000000  0.5149210000000  0.5251840000000 1.0
C      1  0.5166960000000  0.5777620000000  0.5214960000000 1.0
C      1  0.5213620000000  0.5165700000000  0.5779190000000 1.0
C      1  0.5772600000000  0.5214880000000  0.5161650000000 1.0
C      1  0.5165750000000  0.4217080000000  0.4782370000000 1.0
C      1  0.4831060000000  0.4219970000000  0.5217390000000 1.0
C      1  0.4830940000000  0.5778070000000  0.4783430000000 1.0
C      1  0.5202880000000  0.4842980000000  0.4224770000000 1.0
C      1  0.4779220000000  0.4830940000000  0.5778570000000 1.0
C      1  0.4780910000000  0.5226790000000  0.4234750000000 1.0
C      1  0.5776590000000  0.4780330000000  0.4829380000000 1.0
C      1  0.4216990000000  0.4781870000000  0.5164470000000 1.0
C      1  0.4219400000000  0.5215910000000  0.4826580000000 1.0
C      1  0.4949320000000  0.5345040000000  0.4787020000000 1.0
C      1  0.4785270000000  0.4951780000000  0.5345750000000 1.0
C      1  0.5344000000000  0.4786780000000  0.4953070000000 1.0
C      1  0.4952820000000  0.4654130000000  0.5209330000000 1.0
C      1  0.5041290000000  0.4650590000000  0.4792990000000 1.0
C      1  0.5042460000000  0.5344420000000  0.5210530000000 1.0
C      1  0.4787980000000  0.5044600000000  0.4658780000000 1.0
C      1  0.5206130000000  0.5045160000000  0.5345410000000 1.0
C      1  0.5209060000000  0.4953620000000  0.4657880000000 1.0
C      1  0.5341010000000  0.5209420000000  0.5046770000000 1.0
C      1  0.4652310000000  0.5209930000000  0.4954910000000 1.0
C      1  0.4649780000000  0.4790690000000  0.5044690000000 1.0
C      1  0.4886330000000  0.4526880000000  0.4280870000000 1.0
C      1  0.4301240000000  0.4885700000000  0.4528140000000 1.0
C      1  0.4529190000000  0.4280090000000  0.4889080000000 1.0
C      1  0.4883990000000  0.5467050000000  0.5711320000000 1.0
C      1  0.5099410000000  0.5478850000000  0.4283530000000 1.0
C      1  0.5109730000000  0.4529970000000  0.5711980000000 1.0
C      1  0.4282150000000  0.5110490000000  0.5467410000000 1.0
C      1  0.5714050000000  0.5108940000000  0.4525000000000 1.0
C      1  0.5708600000000  0.4886680000000  0.5466790000000 1.0
C      1  0.4527850000000  0.5711100000000  0.5111910000000 1.0
C      1  0.5466150000000  0.5695620000000  0.4883270000000 1.0
C      1  0.5467260000000  0.4284360000000  0.5111840000000 1.0
C      1  0.5007950000000  0.4868640000000  0.5081100000000 1.0
C      1  0.5082220000000  0.5008920000000  0.4870210000000 1.0
C      1  0.4867140000000  0.5081150000000  0.5008400000000 1.0
C      1  0.4979440000000  0.5124390000000  0.4909690000000 1.0
C      1  0.5002330000000  0.5134380000000  0.5065770000000 1.0
C      1  0.4982340000000  0.4858350000000  0.4933440000000 1.0
C      1  0.5062260000000  0.5003350000000  0.5136050000000 1.0
C      1  0.4934850000000  0.4982800000000  0.4857650000000 1.0
C      1  0.4909020000000  0.4983630000000  0.5127290000000 1.0
C      1  0.4857480000000  0.4932010000000  0.4988100000000 1.0
C      1  0.5124360000000  0.4909620000000  0.4984660000000 1.0
C      1  0.5134050000000  0.5065120000000  0.5003090000000 1.0
C      1  0.5528050000000  0.4578130000000  0.5456080000000 1.0
C      1  0.5446470000000  0.5519040000000  0.4563420000000 1.0
C      1  0.4575300000000  0.5455080000000  0.5530720000000 1.0
C      1  0.5524000000000  0.5414050000000  0.4519600000000 1.0
C      1  0.4464440000000  0.5418320000000  0.5458490000000 1.0
C      1  0.4472480000000  0.4565920000000  0.4544660000000 1.0
C      1  0.5456050000000  0.4467030000000  0.5419450000000 1.0
C      1  0.4543590000000  0.4454610000000  0.4582570000000 1.0
C      1  0.4536940000000  0.5529020000000  0.5421470000000 1.0
C      1  0.4578190000000  0.4521580000000  0.4467570000000 1.0
C      1  0.5418670000000  0.4539860000000  0.5529880000000 1.0
C      1  0.5407200000000  0.5444840000000  0.4453280000000 1.0
C      1  0.5087670000000  0.4819890000000  0.5542800000000 1.0
C      1  0.5539020000000  0.5089970000000  0.4817600000000 1.0
C      1  0.4815840000000  0.5541370000000  0.5090770000000 1.0
C      1  0.5084140000000  0.5170150000000  0.4446020000000 1.0
C      1  0.4906340000000  0.5176310000000  0.5542530000000 1.0
C      1  0.4906080000000  0.4810390000000  0.4466510000000 1.0
C      1  0.5538810000000  0.4908890000000  0.5175850000000 1.0
C      1  0.4446920000000  0.4912350000000  0.4828810000000 1.0
C      1  0.4452890000000  0.5090300000000  0.5180410000000 1.0
C      1  0.4819290000000  0.4453710000000  0.4910030000000 1.0
C      1  0.5176980000000  0.4453160000000  0.5090310000000 1.0
C      1  0.5167480000000  0.5545170000000  0.4911540000000 1.0
C      1  0.5004750000000  0.4419440000000  0.5279460000000 1.0
C      1  0.5276780000000  0.5000660000000  0.4424850000000 1.0
C      1  0.4416870000000  0.5279550000000  0.5005650000000 1.0
C      1  0.5004000000000  0.5578180000000  0.4717420000000 1.0
C      1  0.4988910000000  0.5579300000000  0.5279970000000 1.0
C      1  0.4991810000000  0.4416100000000  0.4721210000000 1.0
C      1  0.5276840000000  0.4991620000000  0.5579230000000 1.0
C      1  0.4731880000000  0.4982600000000  0.4436640000000 1.0
C      1  0.4716000000000  0.5004920000000  0.5579110000000 1.0
C      1  0.4416730000000  0.4717050000000  0.4991740000000 1.0
C      1  0.5577610000000  0.4718240000000  0.5005290000000 1.0
C      1  0.5573280000000  0.5279120000000  0.4988180000000 1.0
C      1  0.5384290000000  0.5443960000000  0.5110760000000 1.0
C      1  0.5104470000000  0.5387350000000  0.5445670000000 1.0
C      1  0.5441320000000  0.5106770000000  0.5387760000000 1.0
C      1  0.5386120000000  0.4551920000000  0.4891760000000 1.0
C      1  0.4610090000000  0.4554470000000  0.5106000000000 1.0
C      1  0.4609020000000  0.5444590000000  0.4889360000000 1.0
C      1  0.5104640000000  0.4609120000000  0.4558410000000 1.0
C      1  0.4889190000000  0.4610770000000  0.5443960000000 1.0
C      1  0.4894140000000  0.5386820000000  0.4549530000000 1.0
C      1  0.5442050000000  0.4890140000000  0.4612190000000 1.0
C      1  0.4550400000000  0.4890280000000  0.5387710000000 1.0
C      1  0.4556750000000  0.5109860000000  0.4609780000000 1.0
C      1  0.5260670000000  0.4734400000000  0.4837930000000 1.0
C      1  0.4833120000000  0.5266010000000  0.4732030000000 1.0
C      1  0.4733470000000  0.4835780000000  0.5263280000000 1.0
C      1  0.5257660000000  0.5260400000000  0.5161440000000 1.0
C      1  0.4733530000000  0.5260960000000  0.4838490000000 1.0
C      1  0.4737260000000  0.4739600000000  0.5157080000000 1.0
C      1  0.4836700000000  0.4735910000000  0.5260350000000 1.0
C      1  0.5154050000000  0.4738690000000  0.4742890000000 1.0
C      1  0.5157080000000  0.5262120000000  0.5262980000000 1.0
C      1  0.4740120000000  0.5159410000000  0.4739300000000 1.0
C      1  0.5257990000000  0.5159790000000  0.5263080000000 1.0
C      1  0.5259870000000  0.4837620000000  0.4738620000000 1.0
C      1  0.5527240000000  0.4674180000000  0.4571700000000 1.0
C      1  0.4572170000000  0.5529770000000  0.4672390000000 1.0
C      1  0.4673280000000  0.4571140000000  0.5529270000000 1.0
C      1  0.5527390000000  0.5322310000000  0.5426910000000 1.0
C      1  0.4473400000000  0.5322290000000  0.4569170000000 1.0
C      1  0.4465800000000  0.4674070000000  0.5426100000000 1.0
C      1  0.4571070000000  0.4468560000000  0.5322010000000 1.0
C      1  0.5424920000000  0.4467090000000  0.4675540000000 1.0
C      1  0.5424080000000  0.5530400000000  0.5325250000000 1.0
C      1  0.4678420000000  0.5423980000000  0.4462370000000 1.0
C      1  0.5320540000000  0.5426040000000  0.5531660000000 1.0
C      1  0.5319870000000  0.4571960000000  0.4470280000000 1.0
C      1  0.4851300000000  0.4397610000000  0.4768600000000 1.0
C      1  0.4766380000000  0.4840150000000  0.4407790000000 1.0
C      1  0.4400520000000  0.4765990000000  0.4851320000000 1.0
C      1  0.4846730000000  0.5594340000000  0.5233650000000 1.0
C      1  0.5145120000000  0.5592000000000  0.4765680000000 1.0
C      1  0.5146380000000  0.4402410000000  0.5233410000000 1.0
C      1  0.4763290000000  0.5146270000000  0.5594650000000 1.0
C      1  0.5227870000000  0.5137850000000  0.4404020000000 1.0
C      1  0.5230660000000  0.4850010000000  0.5595140000000 1.0
C      1  0.4400700000000  0.5232930000000  0.5148160000000 1.0
C      1  0.5595140000000  0.5231340000000  0.4845410000000 1.0
C      1  0.5592200000000  0.4766020000000  0.5146600000000 1.0
C      1  0.5063610000000  0.5516570000000  0.5013310000000 1.0
C      1  0.5007840000000  0.5069470000000  0.5516750000000 1.0
C      1  0.5512770000000  0.5010990000000  0.5069180000000 1.0
C      1  0.5069710000000  0.4479520000000  0.4989270000000 1.0
C      1  0.4926880000000  0.4481570000000  0.5011130000000 1.0
C      1  0.4922150000000  0.5514040000000  0.4989630000000 1.0
C      1  0.5006000000000  0.4919890000000  0.4491630000000 1.0
C      1  0.4985990000000  0.4926820000000  0.5515650000000 1.0
C      1  0.4980030000000  0.5062030000000  0.4469530000000 1.0
C      1  0.5511820000000  0.4989160000000  0.4926030000000 1.0
C      1  0.4480010000000  0.4989530000000  0.5074180000000 1.0
C      1  0.4477760000000  0.5013730000000  0.4932750000000 1.0
C      1  0.5849340000000  0.5017990000000  0.5055590000000 1.0
C      1  0.5058700000000  0.5851920000000  0.5019320000000 1.0
C      1  0.5016060000000  0.5058040000000  0.5852950000000 1.0
C      1  0.5850160000000  0.4977430000000  0.4937170000000 1.0
C      1  0.4145480000000  0.4979870000000  0.5054230000000 1.0
C      1  0.4144120000000  0.5020510000000  0.4935580000000 1.0
C      1  0.5057440000000  0.4143670000000  0.4979330000000 1.0
C      1  0.4939500000000  0.4143760000000  0.5021200000000 1.0
C      1  0.4939070000000  0.5851070000000  0.4981790000000 1.0
C      1  0.5001320000000  0.4953570000000  0.4152960000000 1.0
C      1  0.4976050000000  0.4939420000000  0.5852660000000 1.0
C      1  0.4945820000000  0.5066420000000  0.4146270000000 1.0
C      1  0.5006440000000  0.4581230000000  0.4225170000000 1.0
C      1  0.4230200000000  0.5005400000000  0.4572510000000 1.0
C      1  0.4575950000000  0.4220740000000  0.5011190000000 1.0
C      1  0.5004690000000  0.5420270000000  0.5774490000000 1.0
C      1  0.4979220000000  0.5432830000000  0.4215620000000 1.0
C      1  0.4988710000000  0.4577110000000  0.5774040000000 1.0
C      1  0.4220550000000  0.4989450000000  0.5419640000000 1.0
C      1  0.5771810000000  0.4988040000000  0.4574330000000 1.0
C      1  0.5770880000000  0.5007290000000  0.5418960000000 1.0
C      1  0.4575970000000  0.5773100000000  0.4991410000000 1.0
C      1  0.5420390000000  0.5766690000000  0.5001890000000 1.0
C      1  0.5420500000000  0.4221850000000  0.4990810000000 1.0
C      1  0.5091230000000  0.4657530000000  0.4418870000000 1.0
C      1  0.4416130000000  0.5095700000000  0.4660600000000 1.0
C      1  0.4659710000000  0.4414310000000  0.5092600000000 1.0
C      1  0.5090420000000  0.5336470000000  0.5584530000000 1.0
C      1  0.4917580000000  0.5340340000000  0.4406900000000 1.0
C      1  0.4902630000000  0.4660910000000  0.5583410000000 1.0
C      1  0.4411230000000  0.4903660000000  0.5336870000000 1.0
C      1  0.5581730000000  0.4903180000000  0.4660780000000 1.0
C      1  0.5580140000000  0.5092780000000  0.5336310000000 1.0
C      1  0.4659860000000  0.5583300000000  0.4903020000000 1.0
C      1  0.5332620000000  0.5582860000000  0.5095400000000 1.0
C      1  0.5336410000000  0.4412470000000  0.4905950000000 1.0
C      1  0.4925080000000  0.4422510000000  0.4381810000000 1.0
C      1  0.4391770000000  0.4928170000000  0.4421040000000 1.0
C      1  0.4425650000000  0.4380740000000  0.4924960000000 1.0
C      1  0.4922680000000  0.5573080000000  0.5616080000000 1.0
C      1  0.5065350000000  0.5580400000000  0.4380170000000 1.0
C      1  0.5071110000000  0.4424580000000  0.5615660000000 1.0
C      1  0.4379410000000  0.5071970000000  0.5572590000000 1.0
C      1  0.5611400000000  0.5071140000000  0.4423090000000 1.0
C      1  0.5613250000000  0.4925230000000  0.5572970000000 1.0
C      1  0.4422140000000  0.5615270000000  0.5072470000000 1.0
C      1  0.5574550000000  0.5607030000000  0.4925530000000 1.0
C      1  0.5571840000000  0.4381880000000  0.5073320000000 1.0
C      1  0.5432080000000  0.4665350000000  0.4993640000000 1.0
C      1  0.4991570000000  0.5432180000000  0.4665950000000 1.0
C      1  0.4663580000000  0.4992720000000  0.5433580000000 1.0
C      1  0.5427140000000  0.5331550000000  0.5009180000000 1.0
C      1  0.4563190000000  0.5332090000000  0.4993390000000 1.0
C      1  0.4562780000000  0.4666730000000  0.5003430000000 1.0
C      1  0.4992200000000  0.4565160000000  0.5331160000000 1.0
C      1  0.5001100000000  0.4561570000000  0.4669610000000 1.0
C      1  0.5002140000000  0.5432760000000  0.5332160000000 1.0
C      1  0.4664400000000  0.5004630000000  0.4573620000000 1.0
C      1  0.5328250000000  0.5004460000000  0.5433110000000 1.0
C      1  0.5330020000000  0.4993090000000  0.4568610000000 1.0
C      1  0.5623540000000  0.4490680000000  0.4830760000000 1.0
C      1  0.4825870000000  0.5627060000000  0.4493480000000 1.0
C      1  0.4489010000000  0.4829880000000  0.5624670000000 1.0
C      1  0.5622700000000  0.5504350000000  0.5169420000000 1.0
C      1  0.4372840000000  0.5506250000000  0.4828860000000 1.0
C      1  0.4372020000000  0.4491720000000  0.5166760000000 1.0
C      1  0.4829270000000  0.4373620000000  0.5505870000000 1.0
C      1  0.5166700000000  0.4372310000000  0.4492310000000 1.0
C      1  0.5164900000000  0.5625010000000  0.5506790000000 1.0
C      1  0.4494680000000  0.5169520000000  0.4370770000000 1.0
C      1  0.5503670000000  0.5166900000000  0.5625110000000 1.0
C      1  0.5499820000000  0.4830080000000  0.4372810000000 1.0
C      1  0.5275480000000  0.5499240000000  0.5306200000000 1.0
C      1  0.5301190000000  0.5277910000000  0.5500300000000 1.0
C      1  0.5496040000000  0.5303590000000  0.5279200000000 1.0
C      1  0.5276720000000  0.4497540000000  0.4695800000000 1.0
C      1  0.4719190000000  0.4499880000000  0.5302480000000 1.0
C      1  0.4719770000000  0.5498760000000  0.4692000000000 1.0
C      1  0.5299990000000  0.4719470000000  0.4502890000000 1.0
C      1  0.4691990000000  0.4719320000000  0.5498740000000 1.0
C      1  0.4703610000000  0.5273980000000  0.4482800000000 1.0
C      1  0.5497260000000  0.4693080000000  0.4720140000000 1.0
C      1  0.4496940000000  0.4693670000000  0.5278010000000 1.0
C      1  0.4499950000000  0.5304530000000  0.4718980000000 1.0
C      1  0.4414120000000  0.5611900000000  0.4924520000000 1.0
C      1  0.4923300000000  0.4415650000000  0.5612200000000 1.0
C      1  0.5607480000000  0.4922890000000  0.4414950000000 1.0
C      1  0.4415250000000  0.4385530000000  0.5072840000000 1.0
C      1  0.5581530000000  0.4384690000000  0.4925410000000 1.0
C      1  0.5580880000000  0.5609030000000  0.5073890000000 1.0
C      1  0.4918000000000  0.5587400000000  0.4386020000000 1.0
C      1  0.5070530000000  0.5582410000000  0.5613030000000 1.0
C      1  0.5072580000000  0.4414790000000  0.4385620000000 1.0
C      1  0.5609960000000  0.5072950000000  0.5582060000000 1.0
C      1  0.4389680000000  0.5075840000000  0.4413010000000 1.0
C      1  0.4382720000000  0.4924160000000  0.5581970000000 1.0
C      1  0.4774700000000  0.5707240000000  0.5426320000000 1.0
C      1  0.5423180000000  0.4778430000000  0.5708140000000 1.0
C      1  0.5715720000000  0.5416930000000  0.4793020000000 1.0
C      1  0.4782890000000  0.4281060000000  0.4576060000000 1.0
C      1  0.5217050000000  0.4288130000000  0.5425400000000 1.0
C      1  0.5219140000000  0.5703920000000  0.4572900000000 1.0
C      1  0.5413210000000  0.5212570000000  0.4284820000000 1.0
C      1  0.4570600000000  0.5218330000000  0.5708330000000 1.0
C      1  0.4582960000000  0.4797140000000  0.4282480000000 1.0
C      1  0.5706740000000  0.4573650000000  0.5219500000000 1.0
C      1  0.4291640000000  0.4572500000000  0.4774560000000 1.0
C      1  0.4286510000000  0.5425170000000  0.5219170000000 1.0
C      1  0.4969720000000  0.5271950000000  0.5626720000000 1.0
C      1  0.5622570000000  0.4972190000000  0.5271600000000 1.0
C      1  0.5265440000000  0.5626390000000  0.4975520000000 1.0
C      1  0.4970440000000  0.4720210000000  0.4378480000000 1.0
C      1  0.5022640000000  0.4725610000000  0.5626950000000 1.0
C      1  0.5051200000000  0.5282420000000  0.4356490000000 1.0
C      1  0.5624220000000  0.5023900000000  0.4723720000000 1.0
C      1  0.4368120000000  0.5024010000000  0.5272610000000 1.0
C      1  0.4368790000000  0.4976350000000  0.4727900000000 1.0
C      1  0.5272350000000  0.4369130000000  0.5026510000000 1.0
C      1  0.4722390000000  0.4369740000000  0.4971620000000 1.0
C      1  0.4724080000000  0.5626010000000  0.5023490000000 1.0
C      1  0.5820940000000  0.4916340000000  0.4819150000000 1.0
C      1  0.4821390000000  0.5821610000000  0.4919820000000 1.0
C      1  0.4915350000000  0.4821390000000  0.5822920000000 1.0
C      1  0.5818130000000  0.5078980000000  0.5172900000000 1.0
C      1  0.4173640000000  0.5080450000000  0.4816710000000 1.0
C      1  0.4173400000000  0.4918440000000  0.5172890000000 1.0
C      1  0.4821600000000  0.4173580000000  0.5082160000000 1.0
C      1  0.5175520000000  0.4173060000000  0.4918590000000 1.0
C      1  0.5177320000000  0.5821650000000  0.5078990000000 1.0
C      1  0.4904400000000  0.5194490000000  0.4170860000000 1.0
C      1  0.5077350000000  0.5175750000000  0.5823160000000 1.0
C      1  0.5065970000000  0.4835840000000  0.4181760000000 1.0
C      1  0.5105760000000  0.4824080000000  0.5287620000000 1.0
C      1  0.5284600000000  0.5120980000000  0.4820420000000 1.0
C      1  0.4822390000000  0.5287150000000  0.5108190000000 1.0
C      1  0.5096430000000  0.5170430000000  0.4707810000000 1.0
C      1  0.4890490000000  0.5170500000000  0.5282730000000 1.0
C      1  0.4872840000000  0.4808920000000  0.4719130000000 1.0
C      1  0.5279630000000  0.4892490000000  0.5171590000000 1.0
C      1  0.4708180000000  0.4898480000000  0.4824210000000 1.0
C      1  0.4708420000000  0.5104720000000  0.5175510000000 1.0
C      1  0.4814660000000  0.4713070000000  0.4887250000000 1.0
C      1  0.5173690000000  0.4709860000000  0.5105350000000 1.0
C      1  0.5167480000000  0.5280570000000  0.4893120000000 1.0
C      1  0.4272550000000  0.5436110000000  0.4772160000000 1.0
C      1  0.4772850000000  0.4273730000000  0.5435490000000 1.0
C      1  0.5425500000000  0.4781320000000  0.4271100000000 1.0
C      1  0.4271190000000  0.4561870000000  0.5222300000000 1.0
C      1  0.5723050000000  0.4560830000000  0.4773060000000 1.0
C      1  0.5724530000000  0.5434130000000  0.5223440000000 1.0
C      1  0.4769870000000  0.5728500000000  0.4563080000000 1.0
C      1  0.5221530000000  0.5725260000000  0.5436310000000 1.0
C      1  0.5222720000000  0.4272150000000  0.4562850000000 1.0
C      1  0.5433290000000  0.5223390000000  0.5725290000000 1.0
C      1  0.4555360000000  0.5235750000000  0.4270090000000 1.0
C      1  0.4559730000000  0.4773480000000  0.5724620000000 1.0
C      1  0.4547800000000  0.5451520000000  0.4541510000000 1.0
C      1  0.5450650000000  0.4544340000000  0.4545290000000 1.0
C      1  0.4543300000000  0.4544110000000  0.5452490000000 1.0
C      1  0.5450990000000  0.5452990000000  0.5455240000000 1.0
END
