TITL C-45665-1466-41 -66.3934110721692 1000000 -3607.11477777336 0 0 520 (C1) n - 1
REM
REM in /home/chem/mssmkc/work/GAP20/Larger-Clusters/Only-C240/New
REM
REM
REM
REM
REM
REM ./C.cell (28c9a5b7c779176d5635a9b681e7a0e1)
REM
REM compiler GCC version 8.3.0
REM options -cpp -mtune=generic -march=x86-64 -g -O0
REM seed 1652544206 -1305350567 -593134705 1751690524 -1684896318 -665579608 626407942 -2104675876 674932881 -511446131 1604720276 2040145505 -1572853365 -1431142269 -251079991 477687232 -199832276 -1315918491 1983323043 -558145212 -943725902 -1388832347 1589392470 2062937560 -789869489 -698991005 -1969758476 -524662116 -1345230932 -1334253050 450504811 108647173 1186624839
REM
CELL 1.54180  100.00000  100.00000  100.00000   90.00000   90.00000   90.00000
LATT -1
SFAC C  
C      1  0.5708440000000  0.4816690000000  0.4467660000000 1.0
C      1  0.4819440000000  0.4470020000000  0.5708890000000 1.0
C      1  0.4467880000000  0.5710680000000  0.4817450000000 1.0
C      1  0.5707690000000  0.5183020000000  0.5530510000000 1.0
C      1  0.4296000000000  0.4819920000000  0.5529020000000 1.0
C      1  0.4291540000000  0.5185280000000  0.4466250000000 1.0
C      1  0.4818800000000  0.5531570000000  0.4294360000000 1.0
C      1  0.5182900000000  0.4468020000000  0.4291680000000 1.0
C      1  0.5183340000000  0.5533850000000  0.5710680000000 1.0
C      1  0.4472670000000  0.4295130000000  0.5183170000000 1.0
C      1  0.5530880000000  0.5708310000000  0.5184340000000 1.0
C      1  0.5534270000000  0.4290250000000  0.4816300000000 1.0
C      1  0.5709810000000  0.4467920000000  0.4816480000000 1.0
C      1  0.4817500000000  0.5708910000000  0.4469820000000 1.0
C      1  0.4470460000000  0.4818710000000  0.5707260000000 1.0
C      1  0.5706250000000  0.5530690000000  0.5183050000000 1.0
C      1  0.4290410000000  0.5535000000000  0.4816100000000 1.0
C      1  0.4297350000000  0.4472520000000  0.5181850000000 1.0
C      1  0.4820880000000  0.4294710000000  0.5531460000000 1.0
C      1  0.5184260000000  0.4290370000000  0.4466920000000 1.0
C      1  0.5181970000000  0.5709160000000  0.5533020000000 1.0
C      1  0.4469700000000  0.5184190000000  0.4291260000000 1.0
C      1  0.5533300000000  0.5184230000000  0.5709080000000 1.0
C      1  0.5532020000000  0.4816410000000  0.4290820000000 1.0
C      1  0.4407680000000  0.5093720000000  0.4652280000000 1.0
C      1  0.5090020000000  0.4652920000000  0.4409730000000 1.0
C      1  0.4657460000000  0.4412240000000  0.5089080000000 1.0
C      1  0.4414600000000  0.4914690000000  0.5344790000000 1.0
C      1  0.5588780000000  0.5089030000000  0.5346670000000 1.0
C      1  0.5591040000000  0.4909960000000  0.4652310000000 1.0
C      1  0.5091760000000  0.5347930000000  0.5594120000000 1.0
C      1  0.4911830000000  0.4655470000000  0.5591630000000 1.0
C      1  0.4913120000000  0.5346750000000  0.4412250000000 1.0
C      1  0.4652740000000  0.5593000000000  0.4909910000000 1.0
C      1  0.5348240000000  0.4406330000000  0.4907760000000 1.0
C      1  0.5345390000000  0.5591820000000  0.5091540000000 1.0
C      1  0.4415450000000  0.4656830000000  0.5086730000000 1.0
C      1  0.5092740000000  0.4406950000000  0.4652900000000 1.0
C      1  0.4653980000000  0.5091000000000  0.4409230000000 1.0
C      1  0.4406930000000  0.5349100000000  0.4907420000000 1.0
C      1  0.5588120000000  0.5346460000000  0.5089000000000 1.0
C      1  0.5591730000000  0.4652170000000  0.4909740000000 1.0
C      1  0.5088980000000  0.5591090000000  0.5348190000000 1.0
C      1  0.4910710000000  0.5591700000000  0.4654900000000 1.0
C      1  0.4914450000000  0.4412760000000  0.5346270000000 1.0
C      1  0.4655960000000  0.4911880000000  0.5590480000000 1.0
C      1  0.5346620000000  0.4908400000000  0.4407510000000 1.0
C      1  0.5347080000000  0.5092080000000  0.5593230000000 1.0
C      1  0.4638970000000  0.4267350000000  0.4847090000000 1.0
C      1  0.4266030000000  0.4849560000000  0.4634840000000 1.0
C      1  0.4847400000000  0.4635580000000  0.4264660000000 1.0
C      1  0.4634880000000  0.5737580000000  0.5153450000000 1.0
C      1  0.5366280000000  0.4264960000000  0.5152310000000 1.0
C      1  0.5363490000000  0.5735160000000  0.4848530000000 1.0
C      1  0.4266060000000  0.5155400000000  0.5362950000000 1.0
C      1  0.5735360000000  0.4847290000000  0.5363840000000 1.0
C      1  0.5735700000000  0.5152710000000  0.4634860000000 1.0
C      1  0.4847890000000  0.5365430000000  0.5736400000000 1.0
C      1  0.5154880000000  0.4637750000000  0.5735150000000 1.0
C      1  0.5154200000000  0.5364680000000  0.4265190000000 1.0
C      1  0.4636310000000  0.4848030000000  0.4264290000000 1.0
C      1  0.4267040000000  0.4638330000000  0.4846050000000 1.0
C      1  0.4848970000000  0.4265080000000  0.4635790000000 1.0
C      1  0.4637390000000  0.5154450000000  0.5734680000000 1.0
C      1  0.5364250000000  0.5152430000000  0.4265490000000 1.0
C      1  0.5365600000000  0.4848530000000  0.5735810000000 1.0
C      1  0.4265220000000  0.5366360000000  0.5151660000000 1.0
C      1  0.5734220000000  0.5364200000000  0.4847070000000 1.0
C      1  0.5736820000000  0.4635190000000  0.5152330000000 1.0
C      1  0.4846400000000  0.5736710000000  0.5365740000000 1.0
C      1  0.5153210000000  0.5735130000000  0.4637410000000 1.0
C      1  0.5155900000000  0.4265220000000  0.5364360000000 1.0
C      1  0.4780890000000  0.4216390000000  0.5012280000000 1.0
C      1  0.4212230000000  0.5014630000000  0.4775520000000 1.0
C      1  0.5012060000000  0.4777000000000  0.4214380000000 1.0
C      1  0.4777220000000  0.5787220000000  0.4989150000000 1.0
C      1  0.5225140000000  0.4210930000000  0.4987550000000 1.0
C      1  0.5221540000000  0.5786410000000  0.5013980000000 1.0
C      1  0.4219120000000  0.4990220000000  0.5220430000000 1.0
C      1  0.5782260000000  0.5011930000000  0.5221080000000 1.0
C      1  0.5784240000000  0.4987890000000  0.4777200000000 1.0
C      1  0.5013360000000  0.5224400000000  0.5789770000000 1.0
C      1  0.4989490000000  0.4779100000000  0.5787330000000 1.0
C      1  0.4988750000000  0.5222730000000  0.4217000000000 1.0
C      1  0.4779180000000  0.5012500000000  0.4216030000000 1.0
C      1  0.4219600000000  0.4780740000000  0.5011010000000 1.0
C      1  0.5014530000000  0.4211240000000  0.4776340000000 1.0
C      1  0.4778750000000  0.4989240000000  0.5787030000000 1.0
C      1  0.5222290000000  0.4987480000000  0.4213680000000 1.0
C      1  0.5224540000000  0.5013820000000  0.5789470000000 1.0
C      1  0.4211740000000  0.5225510000000  0.4986480000000 1.0
C      1  0.5781900000000  0.5221600000000  0.5011580000000 1.0
C      1  0.5784600000000  0.4777770000000  0.4987430000000 1.0
C      1  0.5010990000000  0.5786360000000  0.5223990000000 1.0
C      1  0.4987630000000  0.5786440000000  0.4778980000000 1.0
C      1  0.4990600000000  0.4216380000000  0.5222640000000 1.0
C      1  0.4579930000000  0.4783880000000  0.4958390000000 1.0
C      1  0.4780200000000  0.4964610000000  0.4573890000000 1.0
C      1  0.4969530000000  0.4568900000000  0.4782370000000 1.0
C      1  0.4569540000000  0.5219510000000  0.5030040000000 1.0
C      1  0.5426810000000  0.4777780000000  0.5036340000000 1.0
C      1  0.5422970000000  0.5220930000000  0.4961390000000 1.0
C      1  0.4785790000000  0.5036270000000  0.5427240000000 1.0
C      1  0.5216880000000  0.4968510000000  0.5431770000000 1.0
C      1  0.5216930000000  0.5030460000000  0.4570940000000 1.0
C      1  0.4961290000000  0.5426090000000  0.5222460000000 1.0
C      1  0.5043200000000  0.4576760000000  0.5219790000000 1.0
C      1  0.5034100000000  0.5427100000000  0.4784540000000 1.0
C      1  0.4570200000000  0.4971580000000  0.4782240000000 1.0
C      1  0.4787540000000  0.4576120000000  0.4964860000000 1.0
C      1  0.4962490000000  0.4778640000000  0.4574810000000 1.0
C      1  0.4579210000000  0.5043580000000  0.5218220000000 1.0
C      1  0.5426600000000  0.5036340000000  0.4778330000000 1.0
C      1  0.5422960000000  0.4961260000000  0.5221550000000 1.0
C      1  0.4778510000000  0.5429040000000  0.5036780000000 1.0
C      1  0.5215880000000  0.5429370000000  0.4968110000000 1.0
C      1  0.5217900000000  0.4568760000000  0.5030150000000 1.0
C      1  0.4968540000000  0.5218210000000  0.5432390000000 1.0
C      1  0.5041290000000  0.5219860000000  0.4576990000000 1.0
C      1  0.5035660000000  0.4784970000000  0.5428010000000 1.0
C      1  0.5333990000000  0.5537140000000  0.5437330000000 1.0
C      1  0.5533820000000  0.5434720000000  0.5334450000000 1.0
C      1  0.5435770000000  0.5336050000000  0.5537880000000 1.0
C      1  0.5336390000000  0.4462150000000  0.4563300000000 1.0
C      1  0.4666020000000  0.5536750000000  0.4566040000000 1.0
C      1  0.4669400000000  0.4466660000000  0.5435430000000 1.0
C      1  0.5537300000000  0.4563550000000  0.4664680000000 1.0
C      1  0.4462280000000  0.5438630000000  0.4663940000000 1.0
C      1  0.4469960000000  0.4568930000000  0.5332330000000 1.0
C      1  0.5435900000000  0.4664570000000  0.4463330000000 1.0
C      1  0.4565330000000  0.5335670000000  0.4464220000000 1.0
C      1  0.4567700000000  0.4667610000000  0.5535650000000 1.0
C      1  0.5335260000000  0.5437400000000  0.5538780000000 1.0
C      1  0.5534640000000  0.5334340000000  0.5435550000000 1.0
C      1  0.5434010000000  0.5536190000000  0.5335670000000 1.0
C      1  0.5335190000000  0.4563590000000  0.4463520000000 1.0
C      1  0.4668080000000  0.4566310000000  0.5536740000000 1.0
C      1  0.4667090000000  0.5435480000000  0.4466130000000 1.0
C      1  0.5536560000000  0.4664740000000  0.4564170000000 1.0
C      1  0.4468990000000  0.4669300000000  0.5433460000000 1.0
C      1  0.4463040000000  0.5337400000000  0.4563280000000 1.0
C      1  0.5437510000000  0.4461930000000  0.4664040000000 1.0
C      1  0.4569610000000  0.4467630000000  0.5333620000000 1.0
C      1  0.4563800000000  0.5538420000000  0.4665450000000 1.0
C      1  0.4726500000000  0.5183700000000  0.4626270000000 1.0
C      1  0.5186450000000  0.4625040000000  0.4722290000000 1.0
C      1  0.4631410000000  0.4729220000000  0.5180140000000 1.0
C      1  0.4725870000000  0.4817450000000  0.5372760000000 1.0
C      1  0.5277480000000  0.5186360000000  0.5375220000000 1.0
C      1  0.5277950000000  0.4813990000000  0.4625010000000 1.0
C      1  0.5182020000000  0.5374080000000  0.5275980000000 1.0
C      1  0.4820670000000  0.4628980000000  0.5274470000000 1.0
C      1  0.4815670000000  0.5375350000000  0.4723430000000 1.0
C      1  0.4625320000000  0.5279550000000  0.4813770000000 1.0
C      1  0.5375560000000  0.4723950000000  0.4816380000000 1.0
C      1  0.5372000000000  0.5274320000000  0.5182270000000 1.0
C      1  0.4727680000000  0.4629630000000  0.5183200000000 1.0
C      1  0.5182820000000  0.4725060000000  0.4626830000000 1.0
C      1  0.4625940000000  0.5187770000000  0.4721550000000 1.0
C      1  0.4725100000000  0.5375390000000  0.4817070000000 1.0
C      1  0.5276160000000  0.5374440000000  0.5185860000000 1.0
C      1  0.5279060000000  0.4624540000000  0.4813600000000 1.0
C      1  0.5185690000000  0.5278570000000  0.5375960000000 1.0
C      1  0.4818870000000  0.5275740000000  0.4627180000000 1.0
C      1  0.4817230000000  0.4724740000000  0.5374070000000 1.0
C      1  0.4630570000000  0.4821450000000  0.5272450000000 1.0
C      1  0.5374980000000  0.4816190000000  0.4724060000000 1.0
C      1  0.5372670000000  0.5182080000000  0.5274660000000 1.0
C      1  0.4785260000000  0.5424160000000  0.4382990000000 1.0
C      1  0.5426190000000  0.4377250000000  0.4781080000000 1.0
C      1  0.4385350000000  0.4786970000000  0.5422090000000 1.0
C      1  0.4784980000000  0.4577770000000  0.5621250000000 1.0
C      1  0.5218420000000  0.5425920000000  0.5623490000000 1.0
C      1  0.5217300000000  0.4575310000000  0.4380110000000 1.0
C      1  0.5422830000000  0.5620870000000  0.5218660000000 1.0
C      1  0.4580550000000  0.4383140000000  0.5216560000000 1.0
C      1  0.4575290000000  0.5622600000000  0.4782810000000 1.0
C      1  0.4378330000000  0.5220450000000  0.4574480000000 1.0
C      1  0.5620710000000  0.4782220000000  0.4575550000000 1.0
C      1  0.5618460000000  0.5216670000000  0.5423630000000 1.0
C      1  0.4787170000000  0.4383290000000  0.5424240000000 1.0
C      1  0.5424340000000  0.4781580000000  0.4378510000000 1.0
C      1  0.4377470000000  0.5427000000000  0.4780780000000 1.0
C      1  0.4783370000000  0.5620950000000  0.4577580000000 1.0
C      1  0.5216300000000  0.5620810000000  0.5425690000000 1.0
C      1  0.5219330000000  0.4377710000000  0.4574770000000 1.0
C      1  0.5424850000000  0.5219010000000  0.5622400000000 1.0
C      1  0.4576950000000  0.5218430000000  0.4379800000000 1.0
C      1  0.4578570000000  0.4784760000000  0.5619870000000 1.0
C      1  0.4386410000000  0.4579740000000  0.5214530000000 1.0
C      1  0.5621520000000  0.4575360000000  0.4782050000000 1.0
C      1  0.5617610000000  0.5423320000000  0.5216690000000 1.0
C      1  0.5839540000000  0.5340730000000  0.5073570000000 1.0
C      1  0.5344180000000  0.5075300000000  0.5844280000000 1.0
C      1  0.5073110000000  0.5843220000000  0.5343110000000 1.0
C      1  0.5842170000000  0.4658810000000  0.4925510000000 1.0
C      1  0.4156150000000  0.5344990000000  0.4925240000000 1.0
C      1  0.4162130000000  0.4661310000000  0.5072890000000 1.0
C      1  0.5341870000000  0.4926300000000  0.4157180000000 1.0
C      1  0.4659920000000  0.5074230000000  0.4158160000000 1.0
C      1  0.4659210000000  0.4927630000000  0.5842580000000 1.0
C      1  0.5075670000000  0.4156060000000  0.4656810000000 1.0
C      1  0.4926360000000  0.5842700000000  0.4659590000000 1.0
C      1  0.4928720000000  0.4159510000000  0.5342050000000 1.0
C      1  0.5840400000000  0.5073950000000  0.5339990000000 1.0
C      1  0.5341170000000  0.5842360000000  0.5075210000000 1.0
C      1  0.5074500000000  0.5344030000000  0.5845100000000 1.0
C      1  0.5841390000000  0.4926050000000  0.4658030000000 1.0
C      1  0.4161210000000  0.4928500000000  0.5339770000000 1.0
C      1  0.4157000000000  0.5075980000000  0.4655970000000 1.0
C      1  0.5344740000000  0.4155490000000  0.4926140000000 1.0
C      1  0.4661210000000  0.4159870000000  0.5073550000000 1.0
C      1  0.4658030000000  0.5844170000000  0.4927100000000 1.0
C      1  0.5074160000000  0.4657960000000  0.4157750000000 1.0
C      1  0.4928360000000  0.4659490000000  0.5843430000000 1.0
C      1  0.4926820000000  0.5341930000000  0.4160030000000 1.0
C      1  0.4214240000000  0.4928020000000  0.5461430000000 1.0
C      1  0.4926960000000  0.5463950000000  0.4212410000000 1.0
C      1  0.5466680000000  0.4208480000000  0.4925360000000 1.0
C      1  0.4209760000000  0.5076310000000  0.4533940000000 1.0
C      1  0.5790340000000  0.4925520000000  0.4535400000000 1.0
C      1  0.5789250000000  0.5074550000000  0.5462460000000 1.0
C      1  0.4928220000000  0.4537710000000  0.5790240000000 1.0
C      1  0.5074550000000  0.5466030000000  0.5792280000000 1.0
C      1  0.5074380000000  0.4535940000000  0.4210230000000 1.0
C      1  0.5463410000000  0.5790290000000  0.5075510000000 1.0
C      1  0.4539660000000  0.4213410000000  0.5074290000000 1.0
C      1  0.4535760000000  0.5792270000000  0.4926260000000 1.0
C      1  0.4208790000000  0.5467090000000  0.4924980000000 1.0
C      1  0.4928880000000  0.4213010000000  0.5463600000000 1.0
C      1  0.5464220000000  0.4925490000000  0.4209030000000 1.0
C      1  0.4215390000000  0.4539770000000  0.5073590000000 1.0
C      1  0.5791560000000  0.4536000000000  0.4925140000000 1.0
C      1  0.5788020000000  0.5463040000000  0.5074380000000 1.0
C      1  0.4926290000000  0.5790570000000  0.4537380000000 1.0
C      1  0.5073480000000  0.5790670000000  0.5465100000000 1.0
C      1  0.5075500000000  0.4208780000000  0.4534760000000 1.0
C      1  0.5466000000000  0.5075450000000  0.5791020000000 1.0
C      1  0.4537490000000  0.5075320000000  0.4209580000000 1.0
C      1  0.4537670000000  0.4927460000000  0.5788890000000 1.0
C      1  0.5256870000000  0.4846110000000  0.5495970000000 1.0
C      1  0.4843930000000  0.5498830000000  0.5257380000000 1.0
C      1  0.5496420000000  0.5256390000000  0.4844600000000 1.0
C      1  0.5257100000000  0.5152600000000  0.4505430000000 1.0
C      1  0.4744740000000  0.4845860000000  0.4502140000000 1.0
C      1  0.4745020000000  0.5156260000000  0.5494880000000 1.0
C      1  0.4846820000000  0.4504920000000  0.4744080000000 1.0
C      1  0.5154460000000  0.5494790000000  0.4745200000000 1.0
C      1  0.5158930000000  0.4501760000000  0.5255450000000 1.0
C      1  0.5498920000000  0.4743960000000  0.5155060000000 1.0
C      1  0.4505200000000  0.5259030000000  0.5152720000000 1.0
C      1  0.4503950000000  0.4747190000000  0.4843190000000 1.0
C      1  0.5255180000000  0.5495530000000  0.4846450000000 1.0
C      1  0.4845820000000  0.5257260000000  0.5496460000000 1.0
C      1  0.5497190000000  0.4844700000000  0.5256250000000 1.0
C      1  0.5258660000000  0.4505090000000  0.5152960000000 1.0
C      1  0.4746420000000  0.4507000000000  0.4845550000000 1.0
C      1  0.4743410000000  0.5499930000000  0.5155920000000 1.0
C      1  0.4844880000000  0.4744090000000  0.4502770000000 1.0
C      1  0.5156230000000  0.4744950000000  0.5495060000000 1.0
C      1  0.5157260000000  0.5255050000000  0.4502250000000 1.0
C      1  0.5498150000000  0.5155150000000  0.4743760000000 1.0
C      1  0.4502990000000  0.5158650000000  0.5254560000000 1.0
C      1  0.4505870000000  0.4848950000000  0.4742670000000 1.0
C      1  0.5674170000000  0.4536180000000  0.5242250000000 1.0
C      1  0.4538310000000  0.5244300000000  0.5672280000000 1.0
C      1  0.5243270000000  0.5672540000000  0.4538620000000 1.0
C      1  0.5671790000000  0.5463800000000  0.4757590000000 1.0
C      1  0.4329580000000  0.4538780000000  0.4756550000000 1.0
C      1  0.4327380000000  0.5465230000000  0.5241910000000 1.0
C      1  0.4537070000000  0.4758500000000  0.4327180000000 1.0
C      1  0.5463490000000  0.5242410000000  0.4327630000000 1.0
C      1  0.5464140000000  0.4758460000000  0.5672900000000 1.0
C      1  0.5245420000000  0.4328320000000  0.5463600000000 1.0
C      1  0.4756950000000  0.5673740000000  0.5465000000000 1.0
C      1  0.4758720000000  0.4328200000000  0.4537620000000 1.0
C      1  0.5672760000000  0.5242590000000  0.4535980000000 1.0
C      1  0.4535710000000  0.5674480000000  0.5242900000000 1.0
C      1  0.5244780000000  0.4538770000000  0.5672630000000 1.0
C      1  0.5673270000000  0.4757790000000  0.5463610000000 1.0
C      1  0.4328490000000  0.4759350000000  0.4536140000000 1.0
C      1  0.4328400000000  0.5244910000000  0.5462660000000 1.0
C      1  0.4539730000000  0.4329480000000  0.4757200000000 1.0
C      1  0.5465300000000  0.4327520000000  0.5242180000000 1.0
C      1  0.5462280000000  0.5672720000000  0.4758350000000 1.0
C      1  0.5243870000000  0.5463680000000  0.4328410000000 1.0
C      1  0.4757730000000  0.5463920000000  0.5673530000000 1.0
C      1  0.4757880000000  0.4536560000000  0.4327840000000 1.0
C      1  0.5465700000000  0.4638210000000  0.5252220000000 1.0
C      1  0.4639180000000  0.5253010000000  0.5460760000000 1.0
C      1  0.5251430000000  0.5460720000000  0.4639550000000 1.0
C      1  0.5462490000000  0.5361770000000  0.4747560000000 1.0
C      1  0.4538710000000  0.4641290000000  0.4746600000000 1.0
C      1  0.4537920000000  0.5364250000000  0.5250190000000 1.0
C      1  0.4638760000000  0.4749130000000  0.4536130000000 1.0
C      1  0.5362550000000  0.5249850000000  0.4538510000000 1.0
C      1  0.5362660000000  0.4749400000000  0.5462000000000 1.0
C      1  0.5255810000000  0.4537340000000  0.5360840000000 1.0
C      1  0.4746870000000  0.5464580000000  0.5362600000000 1.0
C      1  0.4749710000000  0.4539120000000  0.4638910000000 1.0
C      1  0.5464120000000  0.5252230000000  0.4638190000000 1.0
C      1  0.4637680000000  0.5465760000000  0.5252790000000 1.0
C      1  0.5253170000000  0.4639290000000  0.5460890000000 1.0
C      1  0.5464140000000  0.4747540000000  0.5361800000000 1.0
C      1  0.4539010000000  0.4751550000000  0.4637620000000 1.0
C      1  0.4537520000000  0.5255380000000  0.5360500000000 1.0
C      1  0.4640340000000  0.4541070000000  0.4749000000000 1.0
C      1  0.5364210000000  0.4538410000000  0.5249930000000 1.0
C      1  0.5360920000000  0.5461850000000  0.4749500000000 1.0
C      1  0.5254080000000  0.5360540000000  0.4537590000000 1.0
C      1  0.4748880000000  0.5362860000000  0.5462590000000 1.0
C      1  0.4747740000000  0.4639150000000  0.4537180000000 1.0
C      1  0.4462920000000  0.5127070000000  0.5633780000000 1.0
C      1  0.5126280000000  0.5635190000000  0.4462480000000 1.0
C      1  0.5636500000000  0.4460530000000  0.5125240000000 1.0
C      1  0.4461730000000  0.4875760000000  0.4364750000000 1.0
C      1  0.5539240000000  0.5125060000000  0.4364640000000 1.0
C      1  0.5539650000000  0.4875630000000  0.5634950000000 1.0
C      1  0.5128430000000  0.4367490000000  0.5538740000000 1.0
C      1  0.4874110000000  0.5635540000000  0.5540350000000 1.0
C      1  0.4875660000000  0.4365390000000  0.4461550000000 1.0
C      1  0.5633710000000  0.5539200000000  0.4874730000000 1.0
C      1  0.4368720000000  0.4463700000000  0.4873570000000 1.0
C      1  0.4364840000000  0.5540920000000  0.5124640000000 1.0
C      1  0.4460630000000  0.5636560000000  0.5125550000000 1.0
C      1  0.5127620000000  0.4463050000000  0.5634610000000 1.0
C      1  0.5635040000000  0.5125570000000  0.4460340000000 1.0
C      1  0.4464180000000  0.4367740000000  0.4874380000000 1.0
C      1  0.5540790000000  0.4364760000000  0.5124710000000 1.0
C      1  0.5538000000000  0.5634970000000  0.4875410000000 1.0
C      1  0.5127040000000  0.5539260000000  0.4366870000000 1.0
C      1  0.4874830000000  0.5539730000000  0.5636000000000 1.0
C      1  0.4874960000000  0.4461030000000  0.4365700000000 1.0
C      1  0.5635240000000  0.4874900000000  0.5539070000000 1.0
C      1  0.4365910000000  0.4876560000000  0.4460370000000 1.0
C      1  0.4367570000000  0.5127870000000  0.5537720000000 1.0
C      1  0.5000680000000  0.4891580000000  0.5535800000000 1.0
C      1  0.4888850000000  0.5534550000000  0.5000530000000 1.0
C      1  0.5531180000000  0.4998640000000  0.4889330000000 1.0
C      1  0.5000850000000  0.5109960000000  0.4469780000000 1.0
C      1  0.5000000000000  0.4889070000000  0.4467410000000 1.0
C      1  0.5002400000000  0.5111800000000  0.5538780000000 1.0
C      1  0.4893610000000  0.4468170000000  0.5000860000000 1.0
C      1  0.5108780000000  0.5534870000000  0.5003200000000 1.0
C      1  0.5112490000000  0.4461920000000  0.4997750000000 1.0
C      1  0.5528510000000  0.5000270000000  0.5109850000000 1.0
C      1  0.4471880000000  0.5002780000000  0.5108410000000 1.0
C      1  0.4463420000000  0.5004290000000  0.4888330000000 1.0
C      1  0.4998330000000  0.5534210000000  0.4891570000000 1.0
C      1  0.4891730000000  0.5001090000000  0.5535580000000 1.0
C      1  0.5531190000000  0.4889250000000  0.4998630000000 1.0
C      1  0.5003230000000  0.4468570000000  0.5109920000000 1.0
C      1  0.5003330000000  0.4462380000000  0.4888930000000 1.0
C      1  0.4999060000000  0.5533420000000  0.5111950000000 1.0
C      1  0.4890580000000  0.5001550000000  0.4468860000000 1.0
C      1  0.5111240000000  0.5002450000000  0.5538620000000 1.0
C      1  0.5110130000000  0.4997130000000  0.4465350000000 1.0
C      1  0.5528560000000  0.5109740000000  0.5000340000000 1.0
C      1  0.4463060000000  0.5113230000000  0.4997230000000 1.0
C      1  0.4472170000000  0.4893310000000  0.4998860000000 1.0
C      1  0.5027060000000  0.5678210000000  0.4567050000000 1.0
C      1  0.5679320000000  0.4565150000000  0.5026220000000 1.0
C      1  0.4567770000000  0.5028130000000  0.5676430000000 1.0
C      1  0.5030080000000  0.4324860000000  0.5433550000000 1.0
C      1  0.4972650000000  0.5678400000000  0.5435350000000 1.0
C      1  0.4975290000000  0.4321640000000  0.4565370000000 1.0
C      1  0.5675980000000  0.5433840000000  0.4973220000000 1.0
C      1  0.4326890000000  0.4569240000000  0.4971860000000 1.0
C      1  0.4321730000000  0.5436750000000  0.5025130000000 1.0
C      1  0.4566770000000  0.4974370000000  0.4321930000000 1.0
C      1  0.5434460000000  0.5025940000000  0.4321750000000 1.0
C      1  0.5435380000000  0.4974940000000  0.5678390000000 1.0
C      1  0.5028570000000  0.4567780000000  0.5677510000000 1.0
C      1  0.5678120000000  0.5026540000000  0.4564890000000 1.0
C      1  0.4565480000000  0.5679720000000  0.5026950000000 1.0
C      1  0.5028470000000  0.5434300000000  0.4324020000000 1.0
C      1  0.4974260000000  0.5435560000000  0.5679460000000 1.0
C      1  0.4973640000000  0.4565770000000  0.4322580000000 1.0
C      1  0.5677180000000  0.4973340000000  0.5433600000000 1.0
C      1  0.4322630000000  0.4976090000000  0.4564450000000 1.0
C      1  0.4325820000000  0.5029640000000  0.5432100000000 1.0
C      1  0.4569290000000  0.4325590000000  0.4973290000000 1.0
C      1  0.5436300000000  0.4321370000000  0.5025560000000 1.0
C      1  0.5433450000000  0.5677850000000  0.4974720000000 1.0
C      1  0.4923470000000  0.4808960000000  0.5651130000000 1.0
C      1  0.4806880000000  0.5650920000000  0.4923220000000 1.0
C      1  0.5648040000000  0.4922100000000  0.4807240000000 1.0
C      1  0.4924020000000  0.5192840000000  0.4354140000000 1.0
C      1  0.5077380000000  0.4806560000000  0.4351030000000 1.0
C      1  0.5079830000000  0.5194220000000  0.5654260000000 1.0
C      1  0.4810870000000  0.4353020000000  0.5077910000000 1.0
C      1  0.5191040000000  0.5650600000000  0.5080200000000 1.0
C      1  0.5194900000000  0.4346010000000  0.4920540000000 1.0
C      1  0.5645120000000  0.5077010000000  0.5191870000000 1.0
C      1  0.4356850000000  0.4925650000000  0.5191090000000 1.0
C      1  0.4347380000000  0.5081420000000  0.4805950000000 1.0
C      1  0.4921730000000  0.5650320000000  0.4809010000000 1.0
C      1  0.4808960000000  0.4923600000000  0.5650770000000 1.0
C      1  0.5648210000000  0.4807400000000  0.4921860000000 1.0
C      1  0.4925840000000  0.4353750000000  0.5192920000000 1.0
C      1  0.5080910000000  0.4346700000000  0.4806630000000 1.0
C      1  0.5076240000000  0.5649520000000  0.5194520000000 1.0
C      1  0.4808680000000  0.5078380000000  0.4352530000000 1.0
C      1  0.5193900000000  0.5080030000000  0.5653980000000 1.0
C      1  0.5192120000000  0.4920500000000  0.4349070000000 1.0
C      1  0.5645000000000  0.5191930000000  0.5076920000000 1.0
C      1  0.4347000000000  0.5195320000000  0.4919780000000 1.0
C      1  0.4357190000000  0.4810370000000  0.5075730000000 1.0
C      1  0.5328790000000  0.4553410000000  0.4933300000000 1.0
C      1  0.4562090000000  0.4942480000000  0.5326660000000 1.0
C      1  0.4940800000000  0.5328740000000  0.4559590000000 1.0
C      1  0.5326540000000  0.5444680000000  0.5065240000000 1.0
C      1  0.4676950000000  0.4559910000000  0.5062420000000 1.0
C      1  0.4670550000000  0.5445880000000  0.4936330000000 1.0
C      1  0.4554910000000  0.5068100000000  0.4671490000000 1.0
C      1  0.5443970000000  0.4936660000000  0.4669820000000 1.0
C      1  0.5441530000000  0.5061820000000  0.5329600000000 1.0
C      1  0.4938120000000  0.4674680000000  0.5443930000000 1.0
C      1  0.5065570000000  0.5328740000000  0.5446840000000 1.0
C      1  0.5063100000000  0.4670850000000  0.4557050000000 1.0
C      1  0.5328210000000  0.4934090000000  0.4554500000000 1.0
C      1  0.4554130000000  0.5330110000000  0.4933230000000 1.0
C      1  0.4941830000000  0.4560300000000  0.5327880000000 1.0
C      1  0.5327180000000  0.5066000000000  0.5445980000000 1.0
C      1  0.4671470000000  0.5064320000000  0.4556270000000 1.0
C      1  0.4675780000000  0.4938260000000  0.5442740000000 1.0
C      1  0.4562970000000  0.4675310000000  0.5059080000000 1.0
C      1  0.5444640000000  0.4669240000000  0.4936650000000 1.0
C      1  0.5440920000000  0.5328900000000  0.5061960000000 1.0
C      1  0.4937320000000  0.5444220000000  0.4673620000000 1.0
C      1  0.5062130000000  0.5443720000000  0.5330290000000 1.0
C      1  0.5066450000000  0.4554170000000  0.4672040000000 1.0
C      1  0.4765740000000  0.5785260000000  0.5134210000000 1.0
C      1  0.5782410000000  0.5132830000000  0.4765970000000 1.0
C      1  0.5134750000000  0.4768160000000  0.5783830000000 1.0
C      1  0.4769530000000  0.4218950000000  0.4867150000000 1.0
C      1  0.5232830000000  0.5782810000000  0.4868840000000 1.0
C      1  0.5236030000000  0.4215940000000  0.5132860000000 1.0
C      1  0.5781860000000  0.4867080000000  0.5232600000000 1.0
C      1  0.4218990000000  0.5135200000000  0.5231840000000 1.0
C      1  0.4217330000000  0.4869410000000  0.4765100000000 1.0
C      1  0.5133670000000  0.5233700000000  0.4218090000000 1.0
C      1  0.4867150000000  0.4766250000000  0.4216670000000 1.0
C      1  0.4868040000000  0.5235150000000  0.5785060000000 1.0
C      1  0.4767680000000  0.5134460000000  0.5783740000000 1.0
C      1  0.5783110000000  0.4766400000000  0.5132350000000 1.0
C      1  0.5132700000000  0.5782810000000  0.4768080000000 1.0
C      1  0.4767420000000  0.4867490000000  0.4217320000000 1.0
C      1  0.5235420000000  0.4868530000000  0.5784820000000 1.0
C      1  0.5233560000000  0.5132640000000  0.4217760000000 1.0
C      1  0.5781150000000  0.5233060000000  0.4866710000000 1.0
C      1  0.4216720000000  0.5236050000000  0.5131710000000 1.0
C      1  0.4219670000000  0.4769360000000  0.4866040000000 1.0
C      1  0.5135680000000  0.4217190000000  0.5233630000000 1.0
C      1  0.4869310000000  0.4216500000000  0.4766010000000 1.0
C      1  0.4865990000000  0.5784800000000  0.5235030000000 1.0
C      1  0.4434670000000  0.4661410000000  0.4549250000000 1.0
C      1  0.4660600000000  0.4551130000000  0.4434460000000 1.0
C      1  0.4552340000000  0.4435970000000  0.4659690000000 1.0
C      1  0.4434860000000  0.5342510000000  0.5448750000000 1.0
C      1  0.5567150000000  0.4660090000000  0.5449910000000 1.0
C      1  0.5566320000000  0.5340240000000  0.4550250000000 1.0
C      1  0.4660020000000  0.5450800000000  0.5566820000000 1.0
C      1  0.5342320000000  0.4551600000000  0.5566030000000 1.0
C      1  0.5341070000000  0.5448970000000  0.4435260000000 1.0
C      1  0.4549760000000  0.5568010000000  0.5340590000000 1.0
C      1  0.5452650000000  0.4433690000000  0.5340160000000 1.0
C      1  0.5449240000000  0.5566220000000  0.4660620000000 1.0
C      1  0.4436200000000  0.4552900000000  0.4659170000000 1.0
C      1  0.4661150000000  0.4435040000000  0.4550940000000 1.0
C      1  0.4551000000000  0.4661060000000  0.4433840000000 1.0
C      1  0.4433310000000  0.5452480000000  0.5340170000000 1.0
C      1  0.5565550000000  0.5449990000000  0.4660040000000 1.0
C      1  0.5567910000000  0.4550310000000  0.5340100000000 1.0
C      1  0.4659470000000  0.5567330000000  0.5450630000000 1.0
C      1  0.5340600000000  0.5565840000000  0.4551620000000 1.0
C      1  0.5342810000000  0.4435080000000  0.5449000000000 1.0
C      1  0.4551120000000  0.5341990000000  0.5565890000000 1.0
C      1  0.5450950000000  0.5340290000000  0.4433790000000 1.0
C      1  0.5450950000000  0.4660680000000  0.5566340000000 1.0
C      1  0.5172160000000  0.5288240000000  0.4934350000000 1.0
C      1  0.5280900000000  0.4915130000000  0.5192430000000 1.0
C      1  0.4937320000000  0.5174190000000  0.5290510000000 1.0
C      1  0.5172030000000  0.4711440000000  0.5054980000000 1.0
C      1  0.4808170000000  0.5287110000000  0.5076990000000 1.0
C      1  0.4831300000000  0.4717640000000  0.4926130000000 1.0
C      1  0.5284800000000  0.5077420000000  0.4809630000000 1.0
C      1  0.4713270000000  0.4947100000000  0.4827840000000 1.0
C      1  0.4721410000000  0.5097430000000  0.5184750000000 1.0
C      1  0.4918070000000  0.4808300000000  0.4717750000000 1.0
C      1  0.5093930000000  0.5185190000000  0.4719660000000 1.0
C      1  0.5072110000000  0.4828810000000  0.5285840000000 1.0
C      1  0.5172110000000  0.4936030000000  0.5290050000000 1.0
C      1  0.5281140000000  0.5190270000000  0.4915360000000 1.0
C      1  0.4915390000000  0.5283810000000  0.5194280000000 1.0
C      1  0.5172260000000  0.5056770000000  0.4713080000000 1.0
C      1  0.4830170000000  0.5074020000000  0.5285130000000 1.0
C      1  0.4809840000000  0.4924630000000  0.4715560000000 1.0
C      1  0.5284800000000  0.4807800000000  0.5077060000000 1.0
C      1  0.4722140000000  0.4818110000000  0.4905400000000 1.0
C      1  0.4712730000000  0.5174110000000  0.5054280000000 1.0
C      1  0.4939660000000  0.4711520000000  0.4827100000000 1.0
C      1  0.5096930000000  0.4719310000000  0.5186600000000 1.0
C      1  0.5070790000000  0.5284590000000  0.4828780000000 1.0
C      1  0.4341640000000  0.5660790000000  0.4808090000000 1.0
C      1  0.5659990000000  0.4341600000000  0.4807690000000 1.0
C      1  0.4811220000000  0.4344280000000  0.5657730000000 1.0
C      1  0.4809170000000  0.5657820000000  0.4344040000000 1.0
C      1  0.4345000000000  0.4810110000000  0.5655510000000 1.0
C      1  0.5658010000000  0.4807700000000  0.4341570000000 1.0
C      1  0.5192320000000  0.4341700000000  0.4341210000000 1.0
C      1  0.4346960000000  0.4346300000000  0.5191990000000 1.0
C      1  0.4343270000000  0.5193610000000  0.4340680000000 1.0
C      1  0.5656620000000  0.5656990000000  0.5192780000000 1.0
C      1  0.5658730000000  0.5192520000000  0.5657080000000 1.0
C      1  0.5191390000000  0.5659560000000  0.5659330000000 1.0
C      1  0.4769680000000  0.5249470000000  0.5221750000000 1.0
C      1  0.5247700000000  0.4768680000000  0.5222150000000 1.0
C      1  0.5246310000000  0.5223060000000  0.4768370000000 1.0
C      1  0.4772000000000  0.4780120000000  0.4752640000000 1.0
END
