TITL C-45665-1466-3 5.36892440761454 1000000 -1616.59287725058 0 0 240 (C1) n - 1
REM
REM in /home/chem/mssmkc/work/GAP20/Larger-Clusters/Only-C240/New
REM
REM
REM
REM
REM
REM ./C.cell (db1db5b03a21c153a00b653f6831bbfd)
REM
REM compiler GCC version 8.3.0
REM options -cpp -mtune=generic -march=x86-64 -g -O0
REM seed -1646880160 1615046507 228046764 1053095569 -1748331958 -2144680625 -2027993956 1215166305 541419884 -1766416243 586602658 -1301813890 -1245460392 655590068 -377550178 1741103276 1947240536 -1199965249 -2014115599 1416761110 1330115267 -111581865 -1361775887 1360360560 -1619269382 412274989 421121368 897741977 607485132 1888507699 -2026232019 1854509339 -1316058073
REM
CELL 1.54180  100.00000  100.00000  100.00000   90.00000   90.00000   90.00000
LATT -1
SFAC C  
C      1  0.5227250000000  0.4833220000000  0.4363100000000 1.0
C      1  0.4713820000000  0.5086400000000  0.5613580000000 1.0
C      1  0.5433470000000  0.5632380000000  0.4592390000000 1.0
C      1  0.4575440000000  0.4404650000000  0.5329170000000 1.0
C      1  0.5028300000000  0.5808210000000  0.5459540000000 1.0
C      1  0.5160650000000  0.4130100000000  0.4656670000000 1.0
C      1  0.5067360000000  0.4182270000000  0.5347460000000 1.0
C      1  0.4885250000000  0.5786930000000  0.4561600000000 1.0
C      1  0.4416150000000  0.4473430000000  0.5048390000000 1.0
C      1  0.5551210000000  0.5558730000000  0.4891040000000 1.0
C      1  0.4357890000000  0.4672480000000  0.5542880000000 1.0
C      1  0.5436070000000  0.5245490000000  0.4539790000000 1.0
C      1  0.4772660000000  0.4429390000000  0.5380630000000 1.0
C      1  0.5229280000000  0.5601220000000  0.4563380000000 1.0
C      1  0.5067600000000  0.4453330000000  0.4762430000000 1.0
C      1  0.5036680000000  0.5496800000000  0.5299600000000 1.0
C      1  0.5585280000000  0.5561810000000  0.4772260000000 1.0
C      1  0.4369150000000  0.4482620000000  0.5174370000000 1.0
C      1  0.5640220000000  0.4468020000000  0.5252780000000 1.0
C      1  0.4449120000000  0.5539250000000  0.4714240000000 1.0
C      1  0.5338020000000  0.5358280000000  0.5069990000000 1.0
C      1  0.4687190000000  0.4426670000000  0.4803670000000 1.0
C      1  0.4849240000000  0.5166500000000  0.5105490000000 1.0
C      1  0.5146120000000  0.4853240000000  0.4896850000000 1.0
C      1  0.4958790000000  0.5508200000000  0.5418520000000 1.0
C      1  0.5131930000000  0.4437800000000  0.4636360000000 1.0
C      1  0.5786770000000  0.4795770000000  0.5127200000000 1.0
C      1  0.4260080000000  0.5246480000000  0.4998920000000 1.0
C      1  0.4819940000000  0.5412230000000  0.5120440000000 1.0
C      1  0.5261120000000  0.4621920000000  0.4905240000000 1.0
C      1  0.5023640000000  0.4902220000000  0.4976280000000 1.0
C      1  0.4961570000000  0.5123440000000  0.5012540000000 1.0
C      1  0.5352440000000  0.5578160000000  0.4486970000000 1.0
C      1  0.4642530000000  0.4457340000000  0.5445700000000 1.0
C      1  0.5155210000000  0.5258490000000  0.4247470000000 1.0
C      1  0.4666570000000  0.4621650000000  0.5634020000000 1.0
C      1  0.5301050000000  0.4994690000000  0.5627940000000 1.0
C      1  0.4657190000000  0.4956910000000  0.4383850000000 1.0
C      1  0.4709020000000  0.5552470000000  0.5405190000000 1.0
C      1  0.5380540000000  0.4466860000000  0.4620740000000 1.0
C      1  0.5514340000000  0.5337960000000  0.5411150000000 1.0
C      1  0.4427830000000  0.4716620000000  0.4581720000000 1.0
C      1  0.5152600000000  0.5031040000000  0.5173200000000 1.0
C      1  0.4818100000000  0.5004150000000  0.4833330000000 1.0
C      1  0.5265370000000  0.5024100000000  0.4178580000000 1.0
C      1  0.4602730000000  0.4870120000000  0.5732440000000 1.0
C      1  0.4203290000000  0.4918680000000  0.4874910000000 1.0
C      1  0.5787570000000  0.5129270000000  0.5225860000000 1.0
C      1  0.5150540000000  0.5484900000000  0.4569830000000 1.0
C      1  0.4889430000000  0.4507800000000  0.5395280000000 1.0
C      1  0.5142840000000  0.4069640000000  0.5302940000000 1.0
C      1  0.4797290000000  0.5892430000000  0.4598060000000 1.0
C      1  0.4366600000000  0.4827250000000  0.4533060000000 1.0
C      1  0.5542320000000  0.5246980000000  0.5491520000000 1.0
C      1  0.5004010000000  0.4776360000000  0.5744910000000 1.0
C      1  0.4790120000000  0.5389710000000  0.4280780000000 1.0
C      1  0.5265720000000  0.4423580000000  0.4688520000000 1.0
C      1  0.4841530000000  0.5573080000000  0.5360530000000 1.0
C      1  0.4727600000000  0.5059140000000  0.4742610000000 1.0
C      1  0.5256430000000  0.4966550000000  0.5243260000000 1.0
C      1  0.5236420000000  0.5372590000000  0.5167790000000 1.0
C      1  0.4808670000000  0.4426600000000  0.4775770000000 1.0
C      1  0.5427730000000  0.5478290000000  0.5088740000000 1.0
C      1  0.4554820000000  0.4466890000000  0.4825500000000 1.0
C      1  0.5271580000000  0.5099380000000  0.4066630000000 1.0
C      1  0.4562980000000  0.4777990000000  0.5828760000000 1.0
C      1  0.4832780000000  0.5148460000000  0.5556950000000 1.0
C      1  0.5131180000000  0.4779980000000  0.4457970000000 1.0
C      1  0.5364490000000  0.4483740000000  0.4479280000000 1.0
C      1  0.4696910000000  0.5502700000000  0.5538920000000 1.0
C      1  0.4804090000000  0.5509470000000  0.5609470000000 1.0
C      1  0.5256700000000  0.4434560000000  0.4429700000000 1.0
C      1  0.4993310000000  0.4711440000000  0.5144400000000 1.0
C      1  0.5001760000000  0.5307320000000  0.4834420000000 1.0
C      1  0.4659980000000  0.4994300000000  0.5134140000000 1.0
C      1  0.5296040000000  0.5060340000000  0.4859980000000 1.0
C      1  0.4508910000000  0.5125500000000  0.4816640000000 1.0
C      1  0.5487940000000  0.4920410000000  0.5186760000000 1.0
C      1  0.4293420000000  0.4927650000000  0.4538340000000 1.0
C      1  0.5593380000000  0.5138750000000  0.5545070000000 1.0
C      1  0.4523120000000  0.4447120000000  0.4965680000000 1.0
C      1  0.5440660000000  0.5565900000000  0.4977250000000 1.0
C      1  0.5152070000000  0.5324830000000  0.4371720000000 1.0
C      1  0.4811600000000  0.4626590000000  0.5616460000000 1.0
C      1  0.5447280000000  0.4826290000000  0.4601580000000 1.0
C      1  0.4549690000000  0.5225140000000  0.5378830000000 1.0
C      1  0.4848110000000  0.5294450000000  0.5176810000000 1.0
C      1  0.5187320000000  0.4720380000000  0.4850160000000 1.0
C      1  0.4683820000000  0.5258660000000  0.5375490000000 1.0
C      1  0.5326310000000  0.4757160000000  0.4629250000000 1.0
C      1  0.5200460000000  0.5069540000000  0.5645780000000 1.0
C      1  0.4759870000000  0.4887300000000  0.4408130000000 1.0
C      1  0.5541340000000  0.4728540000000  0.5508640000000 1.0
C      1  0.4483950000000  0.5273900000000  0.4447490000000 1.0
C      1  0.4562090000000  0.5043950000000  0.4380440000000 1.0
C      1  0.5397250000000  0.4913800000000  0.5604180000000 1.0
C      1  0.4967810000000  0.5585380000000  0.4689050000000 1.0
C      1  0.5065220000000  0.4416980000000  0.5249410000000 1.0
C      1  0.4807270000000  0.5760840000000  0.4781820000000 1.0
C      1  0.5226860000000  0.4236660000000  0.5177820000000 1.0
C      1  0.5013890000000  0.5698040000000  0.4357180000000 1.0
C      1  0.4937320000000  0.4245120000000  0.5562090000000 1.0
C      1  0.4781270000000  0.5710640000000  0.4902900000000 1.0
C      1  0.5309310000000  0.4312330000000  0.5102670000000 1.0
C      1  0.5107890000000  0.5596080000000  0.5140690000000 1.0
C      1  0.5014190000000  0.4352330000000  0.4923230000000 1.0
C      1  0.5807430000000  0.5010470000000  0.5287660000000 1.0
C      1  0.4175170000000  0.5048060000000  0.4842730000000 1.0
C      1  0.4679090000000  0.4771870000000  0.5336080000000 1.0
C      1  0.5288310000000  0.5249290000000  0.4722590000000 1.0
C      1  0.5549540000000  0.5555210000000  0.4637270000000 1.0
C      1  0.4445210000000  0.4439070000000  0.5297860000000 1.0
C      1  0.4921120000000  0.5001920000000  0.4912050000000 1.0
C      1  0.5065360000000  0.5026990000000  0.5076500000000 1.0
C      1  0.5841420000000  0.4894040000000  0.5211280000000 1.0
C      1  0.4173060000000  0.5155210000000  0.4935840000000 1.0
C      1  0.5295820000000  0.5666250000000  0.4800630000000 1.0
C      1  0.4729130000000  0.4391540000000  0.5122280000000 1.0
C      1  0.4970400000000  0.5348650000000  0.4706070000000 1.0
C      1  0.5042250000000  0.4652050000000  0.5258830000000 1.0
C      1  0.5320660000000  0.5198980000000  0.4849200000000 1.0
C      1  0.4564240000000  0.4805300000000  0.5271540000000 1.0
C      1  0.5228100000000  0.4705990000000  0.4711450000000 1.0
C      1  0.4804420000000  0.5290380000000  0.5315760000000 1.0
C      1  0.4250080000000  0.4804360000000  0.4845520000000 1.0
C      1  0.5716610000000  0.5233100000000  0.5207410000000 1.0
C      1  0.4568410000000  0.4542530000000  0.4591610000000 1.0
C      1  0.5441360000000  0.5626300000000  0.5285220000000 1.0
C      1  0.5226200000000  0.5371570000000  0.4492260000000 1.0
C      1  0.4840470000000  0.4622130000000  0.5469390000000 1.0
C      1  0.5308050000000  0.4515560000000  0.4954140000000 1.0
C      1  0.4800290000000  0.5525370000000  0.5071390000000 1.0
C      1  0.4704310000000  0.4383170000000  0.5258910000000 1.0
C      1  0.5309690000000  0.5667730000000  0.4666910000000 1.0
C      1  0.5575640000000  0.5430980000000  0.4566550000000 1.0
C      1  0.4390490000000  0.4511860000000  0.5401110000000 1.0
C      1  0.5492170000000  0.4484810000000  0.4702350000000 1.0
C      1  0.4609520000000  0.5572210000000  0.5309380000000 1.0
C      1  0.5588240000000  0.4630590000000  0.5441080000000 1.0
C      1  0.4479830000000  0.5380470000000  0.4517440000000 1.0
C      1  0.5531830000000  0.5390160000000  0.5283210000000 1.0
C      1  0.4401770000000  0.4649800000000  0.4712180000000 1.0
C      1  0.4397220000000  0.5284630000000  0.4993620000000 1.0
C      1  0.5662120000000  0.4760050000000  0.5067270000000 1.0
C      1  0.5653730000000  0.4440410000000  0.5009510000000 1.0
C      1  0.4470110000000  0.5585120000000  0.4963160000000 1.0
C      1  0.4256450000000  0.4563870000000  0.5223990000000 1.0
C      1  0.5699100000000  0.5330770000000  0.4751820000000 1.0
C      1  0.5623300000000  0.5318820000000  0.5207180000000 1.0
C      1  0.4315660000000  0.4703700000000  0.4802760000000 1.0
C      1  0.4643140000000  0.4403210000000  0.5029220000000 1.0
C      1  0.5335180000000  0.5630800000000  0.4912450000000 1.0
C      1  0.5137120000000  0.4370990000000  0.4862620000000 1.0
C      1  0.5000100000000  0.5612630000000  0.5217480000000 1.0
C      1  0.4499670000000  0.4540080000000  0.4719520000000 1.0
C      1  0.5466660000000  0.5507730000000  0.5222110000000 1.0
C      1  0.4782090000000  0.5172380000000  0.4668850000000 1.0
C      1  0.5216690000000  0.4837320000000  0.5295980000000 1.0
C      1  0.4223230000000  0.5024070000000  0.4595200000000 1.0
C      1  0.5678910000000  0.5051700000000  0.5501100000000 1.0
C      1  0.4483940000000  0.5516850000000  0.5086340000000 1.0
C      1  0.5629420000000  0.4541850000000  0.4915930000000 1.0
C      1  0.5111830000000  0.4291850000000  0.5255380000000 1.0
C      1  0.4894460000000  0.5696160000000  0.4680890000000 1.0
C      1  0.4536320000000  0.5561640000000  0.5211560000000 1.0
C      1  0.5573340000000  0.4517540000000  0.4787500000000 1.0
C      1  0.4510490000000  0.5159610000000  0.5484960000000 1.0
C      1  0.5447280000000  0.4870330000000  0.4477940000000 1.0
C      1  0.4581370000000  0.4904460000000  0.5187690000000 1.0
C      1  0.5344290000000  0.5273620000000  0.4963040000000 1.0
C      1  0.5624060000000  0.5310590000000  0.4642850000000 1.0
C      1  0.4277270000000  0.4590130000000  0.5356090000000 1.0
C      1  0.4122580000000  0.5242400000000  0.5033240000000 1.0
C      1  0.5927000000000  0.4798750000000  0.5153320000000 1.0
C      1  0.4545940000000  0.4648050000000  0.4519820000000 1.0
C      1  0.5413430000000  0.5728000000000  0.5354920000000 1.0
C      1  0.5150420000000  0.5461440000000  0.5213510000000 1.0
C      1  0.4939320000000  0.4419830000000  0.4817860000000 1.0
C      1  0.4580290000000  0.5095790000000  0.5582990000000 1.0
C      1  0.5361100000000  0.4866180000000  0.4373860000000 1.0
C      1  0.4261870000000  0.4689400000000  0.5456220000000 1.0
C      1  0.5544650000000  0.5190710000000  0.4607080000000 1.0
C      1  0.5234340000000  0.4098780000000  0.5215360000000 1.0
C      1  0.4757120000000  0.5880000000000  0.4721110000000 1.0
C      1  0.4185550000000  0.5068650000000  0.4705740000000 1.0
C      1  0.5755400000000  0.5000530000000  0.5414980000000 1.0
C      1  0.5082060000000  0.5119430000000  0.5629070000000 1.0
C      1  0.4879230000000  0.4834040000000  0.4425960000000 1.0
C      1  0.5003700000000  0.5577260000000  0.5544010000000 1.0
C      1  0.5095610000000  0.4331600000000  0.4534180000000 1.0
C      1  0.4621210000000  0.4994590000000  0.5676470000000 1.0
C      1  0.5284930000000  0.4917100000000  0.4262310000000 1.0
C      1  0.5477400000000  0.4823830000000  0.5565050000000 1.0
C      1  0.4508870000000  0.5157290000000  0.4400120000000 1.0
C      1  0.5294160000000  0.5260440000000  0.4590630000000 1.0
C      1  0.4773870000000  0.4714850000000  0.5392650000000 1.0
C      1  0.4586480000000  0.4543120000000  0.5545740000000 1.0
C      1  0.5357820000000  0.5447090000000  0.4445780000000 1.0
C      1  0.4870700000000  0.5259550000000  0.4662610000000 1.0
C      1  0.5143710000000  0.4738360000000  0.5303760000000 1.0
C      1  0.5142170000000  0.4378840000000  0.4407160000000 1.0
C      1  0.4923520000000  0.5530980000000  0.5653350000000 1.0
C      1  0.5235780000000  0.4953160000000  0.4863990000000 1.0
C      1  0.4747870000000  0.5083020000000  0.5122660000000 1.0
C      1  0.4955550000000  0.5762930000000  0.4448840000000 1.0
C      1  0.4986480000000  0.4196140000000  0.5455810000000 1.0
C      1  0.4898820000000  0.5688090000000  0.5283560000000 1.0
C      1  0.5253640000000  0.4314550000000  0.4790130000000 1.0
C      1  0.5335360000000  0.4413540000000  0.5031920000000 1.0
C      1  0.4784760000000  0.5633640000000  0.5001250000000 1.0
C      1  0.5660700000000  0.4422020000000  0.5133100000000 1.0
C      1  0.4450300000000  0.5579070000000  0.4839210000000 1.0
C      1  0.4462090000000  0.5471120000000  0.4609170000000 1.0
C      1  0.5620420000000  0.4540740000000  0.5354330000000 1.0
C      1  0.4969310000000  0.4793980000000  0.5057450000000 1.0
C      1  0.4997440000000  0.5242120000000  0.4939080000000 1.0
C      1  0.5033780000000  0.5474340000000  0.4645710000000 1.0
C      1  0.4997390000000  0.4519290000000  0.5304860000000 1.0
C      1  0.4962100000000  0.5135330000000  0.5597510000000 1.0
C      1  0.4996880000000  0.4795660000000  0.4444610000000 1.0
C      1  0.4584670000000  0.5039570000000  0.4751340000000 1.0
C      1  0.5396630000000  0.5000120000000  0.5240600000000 1.0
C      1  0.4806860000000  0.5229500000000  0.5440150000000 1.0
C      1  0.5194800000000  0.4735810000000  0.4580430000000 1.0
C      1  0.5214240000000  0.5158980000000  0.4172370000000 1.0
C      1  0.4608080000000  0.4723690000000  0.5712580000000 1.0
C      1  0.5060280000000  0.5704950000000  0.5538430000000 1.0
C      1  0.5087720000000  0.4194650000000  0.4566580000000 1.0
C      1  0.5039170000000  0.5332180000000  0.4287120000000 1.0
C      1  0.4907020000000  0.4674590000000  0.5708010000000 1.0
C      1  0.4463840000000  0.5214580000000  0.4894490000000 1.0
C      1  0.5564240000000  0.4833820000000  0.5134090000000 1.0
C      1  0.4994780000000  0.4664990000000  0.5811730000000 1.0
C      1  0.4913890000000  0.5377080000000  0.4265790000000 1.0
C      1  0.4451450000000  0.5385210000000  0.5069380000000 1.0
C      1  0.5648690000000  0.4666280000000  0.4969390000000 1.0
C      1  0.4447720000000  0.4565380000000  0.5517830000000 1.0
C      1  0.5473950000000  0.5376620000000  0.4482310000000 1.0
C      1  0.5237640000000  0.4186390000000  0.4748490000000 1.0
C      1  0.4953870000000  0.5793340000000  0.5350040000000 1.0
END
