TITL C-45663-7166-82 -10.1428703683264 1000000 -1656.46324579247 0 0 240 (S4) n - 1
REM
REM in /home/chem/mssmkc/work/GAP20/Larger-Clusters/Only-C240/New
REM
REM
REM
REM
REM
REM ./C.cell (28c9a5b7c779176d5635a9b681e7a0e1)
REM
REM compiler GCC version 8.3.0
REM options -cpp -mtune=generic -march=x86-64 -g -O0
REM seed -715169622 -369641769 1691605953 2066960438 644838151 856037629 -527127695 246730404 -1263203511 -1669204862 1069378107 -1571376287 1113446555 340856983 457064580 -573569667 1954592115 -1486525402 -2136284954 -1469669464 -374938571 -1531783451 1565538923 9800625 -337416638 -390310050 -1229361227 -2122056000 515601116 -1929439450 681553001 -1196021212 443222750
REM
CELL 1.54180  100.00000  100.00000  100.00000   90.00000   90.00000   90.00000
LATT -1
SFAC C  
C      1  0.4771820000000  0.4646310000000  0.4370560000000 1.0
C      1  0.4452280000000  0.4880240000000  0.4556370000000 1.0
C      1  0.4603900000000  0.4374020000000  0.4847740000000 1.0
C      1  0.5119020000000  0.4561890000000  0.5537770000000 1.0
C      1  0.4881260000000  0.5438070000000  0.5537870000000 1.0
C      1  0.5227860000000  0.5353730000000  0.4370470000000 1.0
C      1  0.5617450000000  0.4860630000000  0.5402630000000 1.0
C      1  0.4382760000000  0.5139340000000  0.5402960000000 1.0
C      1  0.5547490000000  0.5119800000000  0.4556100000000 1.0
C      1  0.5373730000000  0.4363550000000  0.5239110000000 1.0
C      1  0.4626390000000  0.5636430000000  0.5239350000000 1.0
C      1  0.5396020000000  0.5625990000000  0.4847580000000 1.0
C      1  0.4363500000000  0.4626330000000  0.4760920000000 1.0
C      1  0.4561780000000  0.4881140000000  0.4462290000000 1.0
C      1  0.4860550000000  0.4382670000000  0.4597220000000 1.0
C      1  0.5626020000000  0.4603930000000  0.5152160000000 1.0
C      1  0.5636380000000  0.5373680000000  0.4760620000000 1.0
C      1  0.4374060000000  0.5396060000000  0.5152510000000 1.0
C      1  0.5353870000000  0.4771950000000  0.5629380000000 1.0
C      1  0.5437950000000  0.5118900000000  0.4462070000000 1.0
C      1  0.4646450000000  0.5228000000000  0.5629580000000 1.0
C      1  0.5119890000000  0.4452380000000  0.5443710000000 1.0
C      1  0.5139250000000  0.5617360000000  0.4597200000000 1.0
C      1  0.4880330000000  0.5547590000000  0.5443810000000 1.0
C      1  0.5366820000000  0.4642470000000  0.5565620000000 1.0
C      1  0.5565090000000  0.5371140000000  0.4635260000000 1.0
C      1  0.4731480000000  0.5568720000000  0.5464540000000 1.0
C      1  0.4538870000000  0.4731150000000  0.4433730000000 1.0
C      1  0.5460840000000  0.5268890000000  0.4433510000000 1.0
C      1  0.4633470000000  0.5357490000000  0.5565830000000 1.0
C      1  0.4531860000000  0.5456250000000  0.5362300000000 1.0
C      1  0.5468320000000  0.4543720000000  0.5362030000000 1.0
C      1  0.4434720000000  0.4628890000000  0.4635520000000 1.0
C      1  0.5354070000000  0.5466310000000  0.4538640000000 1.0
C      1  0.4645700000000  0.4533730000000  0.4538780000000 1.0
C      1  0.5268760000000  0.4431250000000  0.5464360000000 1.0
C      1  0.5466410000000  0.4645800000000  0.5461160000000 1.0
C      1  0.4731270000000  0.5460960000000  0.5566470000000 1.0
C      1  0.5456170000000  0.5468240000000  0.4637740000000 1.0
C      1  0.4431150000000  0.4731380000000  0.4535680000000 1.0
C      1  0.4533820000000  0.5354170000000  0.5461420000000 1.0
C      1  0.5568620000000  0.5268660000000  0.4535410000000 1.0
C      1  0.5357370000000  0.5366700000000  0.4434200000000 1.0
C      1  0.5269010000000  0.4539000000000  0.5566290000000 1.0
C      1  0.4642340000000  0.4633350000000  0.4434350000000 1.0
C      1  0.4628970000000  0.5565170000000  0.5364720000000 1.0
C      1  0.4543650000000  0.4531790000000  0.4637930000000 1.0
C      1  0.5371220000000  0.4434800000000  0.5364490000000 1.0
C      1  0.5320030000000  0.5547670000000  0.5439600000000 1.0
C      1  0.5428910000000  0.5337850000000  0.5527370000000 1.0
C      1  0.5522120000000  0.5450240000000  0.5323080000000 1.0
C      1  0.4655720000000  0.5528600000000  0.4579150000000 1.0
C      1  0.5344070000000  0.4471430000000  0.4578930000000 1.0
C      1  0.4680190000000  0.4452300000000  0.5439720000000 1.0
C      1  0.4561470000000  0.5323710000000  0.4461520000000 1.0
C      1  0.5438260000000  0.4676330000000  0.4461270000000 1.0
C      1  0.4571360000000  0.4662110000000  0.5527570000000 1.0
C      1  0.4449270000000  0.5416740000000  0.4669170000000 1.0
C      1  0.5550560000000  0.4583290000000  0.4668860000000 1.0
C      1  0.4478050000000  0.4549730000000  0.5323310000000 1.0
C      1  0.5416810000000  0.5550630000000  0.5330900000000 1.0
C      1  0.5528700000000  0.5344160000000  0.5420840000000 1.0
C      1  0.5323830000000  0.5438380000000  0.5538540000000 1.0
C      1  0.4549660000000  0.5522050000000  0.4676940000000 1.0
C      1  0.4583360000000  0.4449350000000  0.5331070000000 1.0
C      1  0.5450170000000  0.4477980000000  0.4676670000000 1.0
C      1  0.4452200000000  0.5319940000000  0.4560490000000 1.0
C      1  0.4471520000000  0.4655810000000  0.5421080000000 1.0
C      1  0.5547570000000  0.4680100000000  0.4560190000000 1.0
C      1  0.4661990000000  0.5428800000000  0.4472630000000 1.0
C      1  0.4676450000000  0.4561580000000  0.5538670000000 1.0
C      1  0.5337740000000  0.4571240000000  0.4472430000000 1.0
C      1  0.4233280000000  0.5317910000000  0.4748900000000 1.0
C      1  0.4767050000000  0.4231750000000  0.5357000000000 1.0
C      1  0.5328730000000  0.4752350000000  0.4248990000000 1.0
C      1  0.5734940000000  0.5365040000000  0.5223380000000 1.0
C      1  0.4265170000000  0.4634950000000  0.5223730000000 1.0
C      1  0.5766600000000  0.4682110000000  0.4748490000000 1.0
C      1  0.5266090000000  0.4257640000000  0.4683550000000 1.0
C      1  0.4733750000000  0.5742390000000  0.4683740000000 1.0
C      1  0.5233140000000  0.5768230000000  0.5356940000000 1.0
C      1  0.4657230000000  0.4766540000000  0.5738000000000 1.0
C      1  0.5343140000000  0.5233400000000  0.5737840000000 1.0
C      1  0.4670890000000  0.5247710000000  0.4249170000000 1.0
C      1  0.4766380000000  0.5342980000000  0.4262150000000 1.0
C      1  0.5364990000000  0.4265130000000  0.4776320000000 1.0
C      1  0.4257710000000  0.4733820000000  0.5316530000000 1.0
C      1  0.5247870000000  0.5328890000000  0.5750870000000 1.0
C      1  0.5233250000000  0.4657080000000  0.4262010000000 1.0
C      1  0.4752510000000  0.4671050000000  0.5750970000000 1.0
C      1  0.4682160000000  0.4233330000000  0.5251350000000 1.0
C      1  0.4634900000000  0.5734890000000  0.4776560000000 1.0
C      1  0.5317970000000  0.5766650000000  0.5251250000000 1.0
C      1  0.5768150000000  0.4766970000000  0.4642830000000 1.0
C      1  0.5742450000000  0.5266160000000  0.5316180000000 1.0
C      1  0.4231670000000  0.5233060000000  0.4643240000000 1.0
C      1  0.5535980000000  0.4530670000000  0.5237070000000 1.0
C      1  0.5225320000000  0.5527200000000  0.4526280000000 1.0
C      1  0.4538860000000  0.5150000000000  0.5576730000000 1.0
C      1  0.4422850000000  0.4520010000000  0.4837690000000 1.0
C      1  0.5577070000000  0.5480000000000  0.4837440000000 1.0
C      1  0.4464140000000  0.5469320000000  0.5237380000000 1.0
C      1  0.4839390000000  0.5639530000000  0.5543100000000 1.0
C      1  0.5160880000000  0.4360430000000  0.5542970000000 1.0
C      1  0.4774440000000  0.4472830000000  0.4526360000000 1.0
C      1  0.5528180000000  0.5162630000000  0.4357480000000 1.0
C      1  0.4471490000000  0.4837420000000  0.4357740000000 1.0
C      1  0.5461440000000  0.4849960000000  0.5576480000000 1.0
C      1  0.5162770000000  0.4471630000000  0.5642330000000 1.0
C      1  0.4520050000000  0.5577110000000  0.5162580000000 1.0
C      1  0.5639410000000  0.5160770000000  0.4456800000000 1.0
C      1  0.4849830000000  0.4538730000000  0.4423410000000 1.0
C      1  0.4837550000000  0.5528320000000  0.5642450000000 1.0
C      1  0.5149870000000  0.5461310000000  0.4423370000000 1.0
C      1  0.5469270000000  0.5535930000000  0.4762680000000 1.0
C      1  0.5480030000000  0.4422880000000  0.5162290000000 1.0
C      1  0.4530610000000  0.4464090000000  0.4762870000000 1.0
C      1  0.4472930000000  0.5225420000000  0.5473820000000 1.0
C      1  0.4360320000000  0.4839280000000  0.4457120000000 1.0
C      1  0.5527310000000  0.4774540000000  0.5473540000000 1.0
C      1  0.4814990000000  0.4323120000000  0.4715980000000 1.0
C      1  0.4744000000000  0.4879900000000  0.4294880000000 1.0
C      1  0.4272660000000  0.4727180000000  0.4785770000000 1.0
C      1  0.5159830000000  0.4236270000000  0.5259200000000 1.0
C      1  0.4840300000000  0.5763710000000  0.5259340000000 1.0
C      1  0.5184870000000  0.5676900000000  0.4715940000000 1.0
C      1  0.5234720000000  0.4796640000000  0.5701230000000 1.0
C      1  0.4765630000000  0.5203300000000  0.5701360000000 1.0
C      1  0.5255640000000  0.5120150000000  0.4294760000000 1.0
C      1  0.5679550000000  0.4725730000000  0.5196790000000 1.0
C      1  0.4320550000000  0.5274260000000  0.5197160000000 1.0
C      1  0.5727230000000  0.5272830000000  0.4785420000000 1.0
C      1  0.4725690000000  0.4320510000000  0.4803070000000 1.0
C      1  0.4236220000000  0.4840240000000  0.4740920000000 1.0
C      1  0.4796490000000  0.4765480000000  0.4298750000000 1.0
C      1  0.5272880000000  0.4272700000000  0.5214310000000 1.0
C      1  0.5274210000000  0.5679510000000  0.4802980000000 1.0
C      1  0.4727230000000  0.5727280000000  0.5214510000000 1.0
C      1  0.5676970000000  0.4815050000000  0.5283860000000 1.0
C      1  0.5763650000000  0.5159780000000  0.4740540000000 1.0
C      1  0.4323180000000  0.5184930000000  0.5284220000000 1.0
C      1  0.5120300000000  0.4744150000000  0.5705140000000 1.0
C      1  0.5203150000000  0.5234570000000  0.4298660000000 1.0
C      1  0.4880050000000  0.5255790000000  0.5705220000000 1.0
C      1  0.4179780000000  0.5111520000000  0.4587300000000 1.0
C      1  0.4660570000000  0.4194350000000  0.5115180000000 1.0
C      1  0.5098680000000  0.4618690000000  0.4235250000000 1.0
C      1  0.5785370000000  0.5131650000000  0.5340950000000 1.0
C      1  0.4214800000000  0.4868320000000  0.5341340000000 1.0
C      1  0.5820010000000  0.4888510000000  0.4586870000000 1.0
C      1  0.5405800000000  0.4233760000000  0.4908900000000 1.0
C      1  0.4594160000000  0.5766240000000  0.4909170000000 1.0
C      1  0.5339490000000  0.5805640000000  0.5115070000000 1.0
C      1  0.4884470000000  0.4640630000000  0.5799140000000 1.0
C      1  0.5115940000000  0.5359300000000  0.5799110000000 1.0
C      1  0.4900940000000  0.5381370000000  0.4235330000000 1.0
C      1  0.4640460000000  0.5115770000000  0.4200970000000 1.0
C      1  0.5131580000000  0.4214730000000  0.4658790000000 1.0
C      1  0.4233780000000  0.4594180000000  0.5091140000000 1.0
C      1  0.5381540000000  0.5098840000000  0.5764610000000 1.0
C      1  0.5359130000000  0.4884290000000  0.4200780000000 1.0
C      1  0.4618850000000  0.4901100000000  0.5764800000000 1.0
C      1  0.4888600000000  0.4179870000000  0.5412910000000 1.0
C      1  0.4868250000000  0.5785300000000  0.4658920000000 1.0
C      1  0.5111610000000  0.5820100000000  0.5412920000000 1.0
C      1  0.5805620000000  0.4660540000000  0.4884660000000 1.0
C      1  0.5766260000000  0.5405820000000  0.5090790000000 1.0
C      1  0.4194320000000  0.5339470000000  0.4885090000000 1.0
C      1  0.5571910000000  0.5529580000000  0.4970940000000 1.0
C      1  0.4983140000000  0.5622730000000  0.5528870000000 1.0
C      1  0.5510080000000  0.4984050000000  0.5571770000000 1.0
C      1  0.4378010000000  0.5462010000000  0.5022960000000 1.0
C      1  0.5622000000000  0.4537990000000  0.5022600000000 1.0
C      1  0.4428080000000  0.4470420000000  0.4971190000000 1.0
C      1  0.5008760000000  0.5606950000000  0.4533780000000 1.0
C      1  0.4991000000000  0.4393090000000  0.4533740000000 1.0
C      1  0.5017130000000  0.4377230000000  0.5528810000000 1.0
C      1  0.4492060000000  0.4981660000000  0.4375600000000 1.0
C      1  0.5507620000000  0.5018390000000  0.4375350000000 1.0
C      1  0.4490210000000  0.5015910000000  0.5572030000000 1.0
C      1  0.4981790000000  0.5507760000000  0.5624550000000 1.0
C      1  0.5462000000000  0.5621990000000  0.4977130000000 1.0
C      1  0.5607050000000  0.4991100000000  0.5466080000000 1.0
C      1  0.5015790000000  0.5509960000000  0.4428110000000 1.0
C      1  0.5018520000000  0.4492190000000  0.5624500000000 1.0
C      1  0.4983920000000  0.4490090000000  0.4428080000000 1.0
C      1  0.4470430000000  0.5571910000000  0.5029090000000 1.0
C      1  0.4537990000000  0.4378010000000  0.4977310000000 1.0
C      1  0.5529580000000  0.4428090000000  0.5028770000000 1.0
C      1  0.4377110000000  0.4983020000000  0.4471320000000 1.0
C      1  0.4393190000000  0.5008860000000  0.5466390000000 1.0
C      1  0.5622620000000  0.5017020000000  0.4471000000000 1.0
C      1  0.5095630000000  0.5453650000000  0.5691510000000 1.0
C      1  0.5669780000000  0.5108330000000  0.5425130000000 1.0
C      1  0.5420660000000  0.5687210000000  0.5092760000000 1.0
C      1  0.4906850000000  0.5462600000000  0.4354380000000 1.0
C      1  0.5092820000000  0.4537450000000  0.4354300000000 1.0
C      1  0.4904720000000  0.4546290000000  0.5691520000000 1.0
C      1  0.4301320000000  0.5095840000000  0.4509660000000 1.0
C      1  0.5698430000000  0.4904200000000  0.4509300000000 1.0
C      1  0.4330440000000  0.4891630000000  0.5425460000000 1.0
C      1  0.4514230000000  0.5646440000000  0.4918570000000 1.0
C      1  0.5485730000000  0.4353570000000  0.4918270000000 1.0
C      1  0.4579380000000  0.4312780000000  0.5092920000000 1.0
C      1  0.5646450000000  0.5485750000000  0.5081430000000 1.0
C      1  0.5462730000000  0.5092960000000  0.5645540000000 1.0
C      1  0.5095950000000  0.5698540000000  0.5490520000000 1.0
C      1  0.4312760000000  0.5420640000000  0.4907350000000 1.0
C      1  0.4353590000000  0.4514240000000  0.5081720000000 1.0
C      1  0.5687200000000  0.4579360000000  0.4906960000000 1.0
C      1  0.4546140000000  0.5095480000000  0.4308600000000 1.0
C      1  0.4537590000000  0.4906990000000  0.5645770000000 1.0
C      1  0.5453500000000  0.4904570000000  0.4308360000000 1.0
C      1  0.4891540000000  0.5669690000000  0.4574760000000 1.0
C      1  0.4904300000000  0.4301430000000  0.5490520000000 1.0
C      1  0.5108240000000  0.4330350000000  0.4574650000000 1.0
C      1  0.4348220000000  0.5402680000000  0.4765130000000 1.0
C      1  0.4773510000000  0.4348230000000  0.5441770000000 1.0
C      1  0.5423590000000  0.4768830000000  0.4356670000000 1.0
C      1  0.5618380000000  0.5449750000000  0.5221480000000 1.0
C      1  0.4381740000000  0.4550230000000  0.5221760000000 1.0
C      1  0.5651660000000  0.4597340000000  0.4764760000000 1.0
C      1  0.5249540000000  0.4368960000000  0.4593920000000 1.0
C      1  0.4750250000000  0.5631070000000  0.4594100000000 1.0
C      1  0.5226710000000  0.5651740000000  0.5441700000000 1.0
C      1  0.4572450000000  0.4765920000000  0.5621150000000 1.0
C      1  0.5427870000000  0.5234030000000  0.5620960000000 1.0
C      1  0.4576080000000  0.5231220000000  0.4356900000000 1.0
C      1  0.4765780000000  0.5427730000000  0.4379020000000 1.0
C      1  0.5449700000000  0.4381690000000  0.4778240000000 1.0
C      1  0.4369050000000  0.4750340000000  0.5406140000000 1.0
C      1  0.5231350000000  0.5423730000000  0.5643170000000 1.0
C      1  0.5233900000000  0.4572310000000  0.4378870000000 1.0
C      1  0.4768970000000  0.4576220000000  0.5643260000000 1.0
C      1  0.4597390000000  0.4348270000000  0.5235130000000 1.0
C      1  0.4550190000000  0.5618330000000  0.4778520000000 1.0
C      1  0.5402730000000  0.5651710000000  0.5234980000000 1.0
C      1  0.5651640000000  0.4773420000000  0.4558090000000 1.0
C      1  0.5631160000000  0.5249630000000  0.5405840000000 1.0
C      1  0.4348130000000  0.5226620000000  0.4558440000000 1.0
END
