TITL C-45664-8239-66 10.8825028997654 1000000 -1621.83929322392 0 0 240 (C1) n - 1
REM
REM in /home/chem/mssmkc/work/GAP20/Larger-Clusters/Only-C240/New
REM
REM
REM
REM
REM
REM ./C.cell (28c9a5b7c779176d5635a9b681e7a0e1)
REM
REM compiler GCC version 8.3.0
REM options -cpp -mtune=generic -march=x86-64 -g -O0
REM seed -1777233598 1475691167 -838458437 -337882217 -2101623509 -413043201 -2068657391 -558015624 -1676059941 -985384880 852119172 -56995886 1596418662 -161982189 -460965249 2143276561 -1668943047 120139618 189329360 1797823776 -1820900054 -1344311369 -1785525272 -342142862 1946425031 815803168 -856487183 155602777 1206599671 427824813 -1859837969 -110080005 885874794
REM
CELL 1.54180  100.00000  100.00000  100.00000   90.00000   90.00000   90.00000
LATT -1
SFAC C  
C      1  0.4896470000000  0.5613030000000  0.5054900000000 1.0
C      1  0.4554840000000  0.4582540000000  0.5040560000000 1.0
C      1  0.5585060000000  0.4810850000000  0.5047050000000 1.0
C      1  0.4884260000000  0.5616960000000  0.4907060000000 1.0
C      1  0.4600200000000  0.4565990000000  0.4905340000000 1.0
C      1  0.5585510000000  0.4837410000000  0.4902720000000 1.0
C      1  0.4840450000000  0.4449780000000  0.5093540000000 1.0
C      1  0.4636820000000  0.5422840000000  0.5081520000000 1.0
C      1  0.5543130000000  0.5133290000000  0.5086350000000 1.0
C      1  0.4858780000000  0.4410570000000  0.4956260000000 1.0
C      1  0.4645030000000  0.5417250000000  0.4945650000000 1.0
C      1  0.5561400000000  0.5167120000000  0.4948240000000 1.0
C      1  0.4456020000000  0.4395500000000  0.4718490000000 1.0
C      1  0.5757710000000  0.4805780000000  0.4726310000000 1.0
C      1  0.4827180000000  0.5803510000000  0.4760290000000 1.0
C      1  0.4383640000000  0.4494350000000  0.5189150000000 1.0
C      1  0.5747860000000  0.4728230000000  0.5207660000000 1.0
C      1  0.4876040000000  0.5794030000000  0.5213970000000 1.0
C      1  0.4423180000000  0.5520270000000  0.4818150000000 1.0
C      1  0.5750750000000  0.5281580000000  0.4844150000000 1.0
C      1  0.4863350000000  0.4188140000000  0.4856980000000 1.0
C      1  0.4478770000000  0.5558500000000  0.5286060000000 1.0
C      1  0.5744290000000  0.5178210000000  0.5285140000000 1.0
C      1  0.4775460000000  0.4262820000000  0.5298520000000 1.0
C      1  0.4932450000000  0.4265070000000  0.4966080000000 1.0
C      1  0.5652980000000  0.5304800000000  0.4955830000000 1.0
C      1  0.4328930000000  0.5453860000000  0.4891850000000 1.0
C      1  0.4911000000000  0.4285220000000  0.5270420000000 1.0
C      1  0.5655670000000  0.5283650000000  0.5260410000000 1.0
C      1  0.4428300000000  0.5431200000000  0.5241060000000 1.0
C      1  0.4927630000000  0.5764170000000  0.4860960000000 1.0
C      1  0.5686140000000  0.4723480000000  0.4814100000000 1.0
C      1  0.4415060000000  0.4532600000000  0.4746290000000 1.0
C      1  0.4963250000000  0.5753690000000  0.5110520000000 1.0
C      1  0.5679460000000  0.4679920000000  0.5090370000000 1.0
C      1  0.4388750000000  0.4569030000000  0.5066280000000 1.0
C      1  0.5290530000000  0.5161570000000  0.5419760000000 1.0
C      1  0.4710330000000  0.5168500000000  0.5416060000000 1.0
C      1  0.4992180000000  0.4664700000000  0.5420510000000 1.0
C      1  0.5292910000000  0.5138170000000  0.4576470000000 1.0
C      1  0.4693370000000  0.5178610000000  0.4570890000000 1.0
C      1  0.4958940000000  0.4658910000000  0.4580850000000 1.0
C      1  0.5340190000000  0.4877210000000  0.5353570000000 1.0
C      1  0.4719710000000  0.4764140000000  0.5352860000000 1.0
C      1  0.4931470000000  0.5350090000000  0.5352960000000 1.0
C      1  0.5300550000000  0.4882430000000  0.4552800000000 1.0
C      1  0.4719470000000  0.4771840000000  0.4565670000000 1.0
C      1  0.4913610000000  0.5329950000000  0.4571780000000 1.0
C      1  0.4746070000000  0.5632280000000  0.4834210000000 1.0
C      1  0.4622090000000  0.4429300000000  0.4842580000000 1.0
C      1  0.5665450000000  0.4952050000000  0.4834220000000 1.0
C      1  0.4772330000000  0.5634320000000  0.5146770000000 1.0
C      1  0.4583850000000  0.4473700000000  0.5146260000000 1.0
C      1  0.5659640000000  0.4902130000000  0.5145130000000 1.0
C      1  0.4744060000000  0.4354270000000  0.4870450000000 1.0
C      1  0.4631480000000  0.5539470000000  0.4850900000000 1.0
C      1  0.5664520000000  0.5095670000000  0.4859350000000 1.0
C      1  0.4715420000000  0.4410320000000  0.5168160000000 1.0
C      1  0.4651370000000  0.5549820000000  0.5162630000000 1.0
C      1  0.5644160000000  0.5048790000000  0.5159750000000 1.0
C      1  0.5494150000000  0.4602660000000  0.5303500000000 1.0
C      1  0.5101830000000  0.5626130000000  0.5328180000000 1.0
C      1  0.4401630000000  0.4779660000000  0.5273630000000 1.0
C      1  0.5469380000000  0.4785950000000  0.4706650000000 1.0
C      1  0.5040430000000  0.5668930000000  0.4617450000000 1.0
C      1  0.4517700000000  0.4626840000000  0.4698430000000 1.0
C      1  0.5518740000000  0.5249540000000  0.5289210000000 1.0
C      1  0.4952630000000  0.4420660000000  0.5295670000000 1.0
C      1  0.4528620000000  0.5330840000000  0.5275610000000 1.0
C      1  0.5529070000000  0.5404450000000  0.4707280000000 1.0
C      1  0.5076930000000  0.4320750000000  0.4712250000000 1.0
C      1  0.4553700000000  0.5273240000000  0.4766780000000 1.0
C      1  0.4630820000000  0.5085370000000  0.5617360000000 1.0
C      1  0.5114070000000  0.4634730000000  0.5608170000000 1.0
C      1  0.5254460000000  0.5283850000000  0.5604990000000 1.0
C      1  0.4651510000000  0.5109790000000  0.4334350000000 1.0
C      1  0.5053460000000  0.4646550000000  0.4354880000000 1.0
C      1  0.5246080000000  0.5240380000000  0.4357330000000 1.0
C      1  0.4684660000000  0.4824860000000  0.5657640000000 1.0
C      1  0.5002320000000  0.5358320000000  0.5657020000000 1.0
C      1  0.5307030000000  0.4814190000000  0.5655760000000 1.0
C      1  0.4681010000000  0.4833470000000  0.4327550000000 1.0
C      1  0.4977800000000  0.5343560000000  0.4329010000000 1.0
C      1  0.5274830000000  0.4817280000000  0.4316790000000 1.0
C      1  0.5525010000000  0.5128720000000  0.5373510000000 1.0
C      1  0.4624820000000  0.5390060000000  0.5371070000000 1.0
C      1  0.4844830000000  0.4479080000000  0.5378030000000 1.0
C      1  0.5530960000000  0.5274020000000  0.4740860000000 1.0
C      1  0.4566720000000  0.5369220000000  0.4661360000000 1.0
C      1  0.4961930000000  0.4381230000000  0.4747140000000 1.0
C      1  0.5509700000000  0.4725890000000  0.5251370000000 1.0
C      1  0.4503060000000  0.4698640000000  0.5239290000000 1.0
C      1  0.4990450000000  0.5585110000000  0.5264060000000 1.0
C      1  0.5538870000000  0.4874200000000  0.4618740000000 1.0
C      1  0.4611580000000  0.4552080000000  0.4616030000000 1.0
C      1  0.4943380000000  0.5602740000000  0.4682210000000 1.0
C      1  0.4726080000000  0.4203870000000  0.4904070000000 1.0
C      1  0.5806920000000  0.5155850000000  0.4889580000000 1.0
C      1  0.4502320000000  0.5619120000000  0.4891140000000 1.0
C      1  0.4704330000000  0.4254130000000  0.5174560000000 1.0
C      1  0.5783950000000  0.5121460000000  0.5159890000000 1.0
C      1  0.4516800000000  0.5639160000000  0.5174870000000 1.0
C      1  0.4708220000000  0.5781690000000  0.4845070000000 1.0
C      1  0.5809660000000  0.4895450000000  0.4832890000000 1.0
C      1  0.4495440000000  0.4337990000000  0.4845620000000 1.0
C      1  0.4746040000000  0.5783470000000  0.5145640000000 1.0
C      1  0.5804400000000  0.4853380000000  0.5149220000000 1.0
C      1  0.4465500000000  0.4377550000000  0.5143900000000 1.0
C      1  0.4615690000000  0.4155030000000  0.4964750000000 1.0
C      1  0.5906460000000  0.5086260000000  0.4948090000000 1.0
C      1  0.4498100000000  0.5740730000000  0.4954770000000 1.0
C      1  0.4604110000000  0.4188460000000  0.5107090000000 1.0
C      1  0.5889770000000  0.5065250000000  0.5091410000000 1.0
C      1  0.4507720000000  0.5753610000000  0.5102230000000 1.0
C      1  0.4619670000000  0.5827760000000  0.4935870000000 1.0
C      1  0.5904030000000  0.4934140000000  0.4923030000000 1.0
C      1  0.4487200000000  0.4234790000000  0.4935200000000 1.0
C      1  0.4636750000000  0.5836170000000  0.5083620000000 1.0
C      1  0.5897840000000  0.4915300000000  0.5072960000000 1.0
C      1  0.4472400000000  0.4258070000000  0.5081030000000 1.0
C      1  0.5435480000000  0.4950240000000  0.4555240000000 1.0
C      1  0.4791070000000  0.5386690000000  0.4549510000000 1.0
C      1  0.4722820000000  0.4620820000000  0.4560920000000 1.0
C      1  0.5364820000000  0.4946960000000  0.5465580000000 1.0
C      1  0.4859020000000  0.5340110000000  0.5464740000000 1.0
C      1  0.4769310000000  0.4709170000000  0.5465050000000 1.0
C      1  0.5417790000000  0.5084450000000  0.4549090000000 1.0
C      1  0.4851460000000  0.4579760000000  0.4552480000000 1.0
C      1  0.4670280000000  0.5327550000000  0.4572460000000 1.0
C      1  0.5410580000000  0.5083300000000  0.5438820000000 1.0
C      1  0.4864070000000  0.4601570000000  0.5440430000000 1.0
C      1  0.4717580000000  0.5311070000000  0.5437740000000 1.0
C      1  0.5009940000000  0.4718250000000  0.4460670000000 1.0
C      1  0.5211460000000  0.5159100000000  0.4459180000000 1.0
C      1  0.4723740000000  0.5114670000000  0.4447320000000 1.0
C      1  0.5052010000000  0.4726260000000  0.5534630000000 1.0
C      1  0.5206640000000  0.5182610000000  0.5533720000000 1.0
C      1  0.4732550000000  0.5087240000000  0.5531250000000 1.0
C      1  0.4954850000000  0.5276040000000  0.4444960000000 1.0
C      1  0.5233240000000  0.4878390000000  0.4429450000000 1.0
C      1  0.4747330000000  0.4838180000000  0.4444210000000 1.0
C      1  0.4931840000000  0.5277940000000  0.5577770000000 1.0
C      1  0.5272500000000  0.4916030000000  0.5577200000000 1.0
C      1  0.4787750000000  0.4804000000000  0.5576040000000 1.0
C      1  0.5656890000000  0.4900280000000  0.4683150000000 1.0
C      1  0.4816010000000  0.5675090000000  0.4699160000000 1.0
C      1  0.4593850000000  0.4430640000000  0.4679850000000 1.0
C      1  0.5636200000000  0.4796040000000  0.5265020000000 1.0
C      1  0.4868810000000  0.5662960000000  0.5270810000000 1.0
C      1  0.4495480000000  0.4554360000000  0.5256340000000 1.0
C      1  0.5661830000000  0.5213740000000  0.4753590000000 1.0
C      1  0.4846560000000  0.4296520000000  0.4763800000000 1.0
C      1  0.4537580000000  0.5484030000000  0.4731320000000 1.0
C      1  0.5643720000000  0.5076780000000  0.5320480000000 1.0
C      1  0.4739090000000  0.4402940000000  0.5328170000000 1.0
C      1  0.4617480000000  0.5520520000000  0.5320590000000 1.0
C      1  0.5457610000000  0.4783950000000  0.5121190000000 1.0
C      1  0.4974180000000  0.5510230000000  0.5130370000000 1.0
C      1  0.4589100000000  0.4707720000000  0.5113940000000 1.0
C      1  0.5456650000000  0.4797150000000  0.4844560000000 1.0
C      1  0.4950310000000  0.5519950000000  0.4813410000000 1.0
C      1  0.4589840000000  0.4679960000000  0.4813250000000 1.0
C      1  0.5449230000000  0.5210850000000  0.5166750000000 1.0
C      1  0.4955750000000  0.4497210000000  0.5171550000000 1.0
C      1  0.4608070000000  0.5297310000000  0.5157780000000 1.0
C      1  0.5452300000000  0.5192480000000  0.4848270000000 1.0
C      1  0.4932260000000  0.4490670000000  0.4853370000000 1.0
C      1  0.4617720000000  0.5287590000000  0.4890480000000 1.0
C      1  0.4969580000000  0.5134010000000  0.4424260000000 1.0
C      1  0.4866650000000  0.4918600000000  0.4424450000000 1.0
C      1  0.5103010000000  0.4938860000000  0.4415720000000 1.0
C      1  0.4967300000000  0.5136570000000  0.5586450000000 1.0
C      1  0.4893240000000  0.4904700000000  0.5585340000000 1.0
C      1  0.5132080000000  0.4956100000000  0.5586540000000 1.0
C      1  0.4993290000000  0.4859640000000  0.4426110000000 1.0
C      1  0.4854880000000  0.5053560000000  0.4421800000000 1.0
C      1  0.5093450000000  0.5077990000000  0.4425840000000 1.0
C      1  0.5029640000000  0.4862760000000  0.5579260000000 1.0
C      1  0.4863430000000  0.5039440000000  0.5576670000000 1.0
C      1  0.5099760000000  0.5094980000000  0.5579340000000 1.0
C      1  0.5233850000000  0.5162500000000  0.5283700000000 1.0
C      1  0.4741560000000  0.5123250000000  0.5279210000000 1.0
C      1  0.5022460000000  0.4711350000000  0.5283560000000 1.0
C      1  0.5240200000000  0.5132320000000  0.4717380000000 1.0
C      1  0.4736840000000  0.5129950000000  0.4703030000000 1.0
C      1  0.4980820000000  0.4705780000000  0.4721430000000 1.0
C      1  0.5262830000000  0.4881940000000  0.5241430000000 1.0
C      1  0.4766160000000  0.4828330000000  0.5241430000000 1.0
C      1  0.4970790000000  0.5285380000000  0.5240780000000 1.0
C      1  0.5242420000000  0.4868430000000  0.4689820000000 1.0
C      1  0.4745050000000  0.4838150000000  0.4698230000000 1.0
C      1  0.4965350000000  0.5286730000000  0.4709470000000 1.0
C      1  0.4865880000000  0.4920740000000  0.4728120000000 1.0
C      1  0.5110850000000  0.4926550000000  0.4729640000000 1.0
C      1  0.4982980000000  0.5140490000000  0.4733580000000 1.0
C      1  0.4887020000000  0.4915880000000  0.5246940000000 1.0
C      1  0.5126530000000  0.4941720000000  0.5246410000000 1.0
C      1  0.4984730000000  0.5136670000000  0.5243990000000 1.0
C      1  0.4862810000000  0.5060890000000  0.4729810000000 1.0
C      1  0.5107340000000  0.5070490000000  0.4734650000000 1.0
C      1  0.4990400000000  0.4851580000000  0.4735640000000 1.0
C      1  0.4870540000000  0.5054150000000  0.5256220000000 1.0
C      1  0.5111740000000  0.5081590000000  0.5258110000000 1.0
C      1  0.5015350000000  0.4858190000000  0.5258620000000 1.0
C      1  0.4307720000000  0.5428690000000  0.5018540000000 1.0
C      1  0.4979400000000  0.4222130000000  0.5085840000000 1.0
C      1  0.5670660000000  0.5371420000000  0.5072530000000 1.0
C      1  0.4335870000000  0.5413690000000  0.5143960000000 1.0
C      1  0.4993480000000  0.4195230000000  0.5209980000000 1.0
C      1  0.5688640000000  0.5398910000000  0.5196070000000 1.0
C      1  0.4317520000000  0.4567940000000  0.4833300000000 1.0
C      1  0.5000950000000  0.5842410000000  0.4943720000000 1.0
C      1  0.5710650000000  0.4606090000000  0.4870430000000 1.0
C      1  0.4298470000000  0.4573880000000  0.4960510000000 1.0
C      1  0.5056210000000  0.5836570000000  0.5059180000000 1.0
C      1  0.5713720000000  0.4584720000000  0.4998750000000 1.0
C      1  0.4678580000000  0.5183870000000  0.5176680000000 1.0
C      1  0.5015520000000  0.4618560000000  0.5187350000000 1.0
C      1  0.5315340000000  0.5203060000000  0.5186160000000 1.0
C      1  0.4656750000000  0.5184320000000  0.4803410000000 1.0
C      1  0.4949190000000  0.4619340000000  0.4823350000000 1.0
C      1  0.5330290000000  0.5148080000000  0.4819950000000 1.0
C      1  0.4702510000000  0.4775350000000  0.5132660000000 1.0
C      1  0.4973640000000  0.5377000000000  0.5138010000000 1.0
C      1  0.5341310000000  0.4847260000000  0.5134320000000 1.0
C      1  0.4662280000000  0.4792420000000  0.4793300000000 1.0
C      1  0.4955620000000  0.5386650000000  0.4802720000000 1.0
C      1  0.5342090000000  0.4812960000000  0.4768670000000 1.0
C      1  0.5233240000000  0.4734390000000  0.4229570000000 1.0
C      1  0.5072590000000  0.5357440000000  0.4245220000000 1.0
C      1  0.4633560000000  0.4900610000000  0.4230600000000 1.0
C      1  0.5298300000000  0.4705600000000  0.5719900000000 1.0
C      1  0.5101280000000  0.5406190000000  0.5719280000000 1.0
C      1  0.4600600000000  0.4889020000000  0.5727050000000 1.0
C      1  0.5199460000000  0.5312580000000  0.4264240000000 1.0
C      1  0.5131340000000  0.4646450000000  0.4255260000000 1.0
C      1  0.4617890000000  0.5036010000000  0.4236430000000 1.0
C      1  0.5231310000000  0.5372640000000  0.5694530000000 1.0
C      1  0.5201950000000  0.4611080000000  0.5698420000000 1.0
C      1  0.4573530000000  0.5022630000000  0.5712980000000 1.0
END
