TITL C-45664-8239-69 26.7649382545559 1000000 -3657.56608299378 0 0 520 (C1) n - 1
REM
REM in /home/chem/mssmkc/work/GAP20/Larger-Clusters/Only-C240/New
REM
REM
REM
REM
REM
REM ./C.cell (28c9a5b7c779176d5635a9b681e7a0e1)
REM
REM compiler GCC version 8.3.0
REM options -cpp -mtune=generic -march=x86-64 -g -O0
REM seed -1281152578 742955978 1851558978 40410266 1391000889 1118374120 -1028671380 1386271110 181532311 1217343813 1448613504 203363396 -1715139376 -1524793276 -1136037666 -1767591334 961816593 1080345840 2019146322 770350526 -1098066716 -515099069 425139931 -2027384000 271643952 -1415570966 -1922423722 898215298 457321521 -1752670201 928019712 804086987 1827279175
REM
CELL 1.54180  100.00000  100.00000  100.00000   90.00000   90.00000   90.00000
LATT -1
SFAC C  
C      1  0.5178240000000  0.5162850000000  0.5005910000000 1.0
C      1  0.5036460000000  0.5151280000000  0.5181540000000 1.0
C      1  0.5148400000000  0.5088310000000  0.5117720000000 1.0
C      1  0.4821880000000  0.4837410000000  0.5006020000000 1.0
C      1  0.4824750000000  0.5158430000000  0.4992620000000 1.0
C      1  0.5102220000000  0.4858980000000  0.4904470000000 1.0
C      1  0.4967400000000  0.4857260000000  0.5175730000000 1.0
C      1  0.4961910000000  0.5152980000000  0.4820720000000 1.0
C      1  0.4992140000000  0.4828940000000  0.4824420000000 1.0
C      1  0.4850480000000  0.4913570000000  0.5117320000000 1.0
C      1  0.4851150000000  0.5084430000000  0.4879040000000 1.0
C      1  0.5172170000000  0.4962040000000  0.4835080000000 1.0
C      1  0.4786360000000  0.5825410000000  0.4821400000000 1.0
C      1  0.4819050000000  0.4786530000000  0.5832740000000 1.0
C      1  0.5828030000000  0.4820810000000  0.4786760000000 1.0
C      1  0.5208800000000  0.4176630000000  0.4818040000000 1.0
C      1  0.5213020000000  0.5828010000000  0.5177700000000 1.0
C      1  0.4782960000000  0.4174640000000  0.5176850000000 1.0
C      1  0.5179110000000  0.5213820000000  0.5835280000000 1.0
C      1  0.5176570000000  0.4781850000000  0.4162300000000 1.0
C      1  0.4821100000000  0.5210190000000  0.4162900000000 1.0
C      1  0.4172620000000  0.5179520000000  0.4786260000000 1.0
C      1  0.4171350000000  0.4819140000000  0.5211970000000 1.0
C      1  0.5829000000000  0.5181590000000  0.5213610000000 1.0
C      1  0.4746860000000  0.4512660000000  0.5283400000000 1.0
C      1  0.5293150000000  0.4744590000000  0.4500430000000 1.0
C      1  0.4511440000000  0.5285720000000  0.4745500000000 1.0
C      1  0.5250880000000  0.5491320000000  0.5288520000000 1.0
C      1  0.5247620000000  0.4512560000000  0.4706680000000 1.0
C      1  0.4749040000000  0.5489400000000  0.4710970000000 1.0
C      1  0.4704900000000  0.5250950000000  0.4502150000000 1.0
C      1  0.4701770000000  0.4744410000000  0.5497310000000 1.0
C      1  0.5296980000000  0.5258030000000  0.5499420000000 1.0
C      1  0.5487580000000  0.4714110000000  0.4743830000000 1.0
C      1  0.5490240000000  0.5293090000000  0.5257030000000 1.0
C      1  0.4510190000000  0.4708800000000  0.5253180000000 1.0
C      1  0.5154740000000  0.4964600000000  0.5633760000000 1.0
C      1  0.5622000000000  0.5156470000000  0.4963010000000 1.0
C      1  0.4965260000000  0.5615560000000  0.5156740000000 1.0
C      1  0.4843980000000  0.5036270000000  0.5634150000000 1.0
C      1  0.4842670000000  0.4961470000000  0.4366810000000 1.0
C      1  0.5155690000000  0.5031050000000  0.4371870000000 1.0
C      1  0.4383000000000  0.4845300000000  0.4960800000000 1.0
C      1  0.4384460000000  0.5151160000000  0.5037260000000 1.0
C      1  0.5619400000000  0.4850010000000  0.5037800000000 1.0
C      1  0.5032510000000  0.4390820000000  0.5151440000000 1.0
C      1  0.5033820000000  0.5615450000000  0.4844270000000 1.0
C      1  0.4960100000000  0.4383670000000  0.4840960000000 1.0
C      1  0.5226790000000  0.4481850000000  0.5598120000000 1.0
C      1  0.5601430000000  0.5229490000000  0.4476260000000 1.0
C      1  0.4481030000000  0.5596220000000  0.5230510000000 1.0
C      1  0.4770340000000  0.5520420000000  0.5603560000000 1.0
C      1  0.4767240000000  0.4474580000000  0.4391660000000 1.0
C      1  0.5228750000000  0.5515140000000  0.4398820000000 1.0
C      1  0.4396130000000  0.4769330000000  0.4474320000000 1.0
C      1  0.4398780000000  0.5227700000000  0.5522820000000 1.0
C      1  0.5599370000000  0.4773290000000  0.5521990000000 1.0
C      1  0.5513550000000  0.4407810000000  0.5226410000000 1.0
C      1  0.5518840000000  0.5599380000000  0.4768770000000 1.0
C      1  0.4474340000000  0.4398050000000  0.4766210000000 1.0
C      1  0.4728890000000  0.4640690000000  0.4944500000000 1.0
C      1  0.4945240000000  0.4727540000000  0.4627570000000 1.0
C      1  0.4654290000000  0.4958340000000  0.4729820000000 1.0
C      1  0.5261470000000  0.5359710000000  0.4940480000000 1.0
C      1  0.5252000000000  0.4669260000000  0.5041840000000 1.0
C      1  0.4739870000000  0.5353830000000  0.5061130000000 1.0
C      1  0.5052570000000  0.5251400000000  0.4635570000000 1.0
C      1  0.5047190000000  0.4745030000000  0.5360730000000 1.0
C      1  0.4953900000000  0.5260730000000  0.5367920000000 1.0
C      1  0.5361960000000  0.5045030000000  0.4735970000000 1.0
C      1  0.5344180000000  0.4965280000000  0.5267480000000 1.0
C      1  0.4656460000000  0.5037990000000  0.5267090000000 1.0
C      1  0.5506580000000  0.5199150000000  0.5362920000000 1.0
C      1  0.5354750000000  0.5501180000000  0.5191740000000 1.0
C      1  0.5193010000000  0.5355520000000  0.5501690000000 1.0
C      1  0.4492070000000  0.4802170000000  0.5360020000000 1.0
C      1  0.4493680000000  0.5193060000000  0.4638150000000 1.0
C      1  0.5503690000000  0.4807680000000  0.4637410000000 1.0
C      1  0.4639700000000  0.4495820000000  0.5189850000000 1.0
C      1  0.4646490000000  0.5495480000000  0.4809180000000 1.0
C      1  0.5351720000000  0.4503170000000  0.4802870000000 1.0
C      1  0.4805030000000  0.4646490000000  0.5497960000000 1.0
C      1  0.4807660000000  0.5349730000000  0.4499610000000 1.0
C      1  0.5191080000000  0.4644940000000  0.4494570000000 1.0
C      1  0.5428840000000  0.5421520000000  0.4751160000000 1.0
C      1  0.4754750000000  0.5423930000000  0.5422020000000 1.0
C      1  0.5419030000000  0.4755890000000  0.5431480000000 1.0
C      1  0.4567790000000  0.4577740000000  0.4747000000000 1.0
C      1  0.4573660000000  0.5416930000000  0.5249890000000 1.0
C      1  0.5421500000000  0.4588900000000  0.5245530000000 1.0
C      1  0.5242850000000  0.4581150000000  0.5416170000000 1.0
C      1  0.5244290000000  0.5420270000000  0.4580360000000 1.0
C      1  0.4746980000000  0.4567160000000  0.4569880000000 1.0
C      1  0.4579620000000  0.5246650000000  0.5432670000000 1.0
C      1  0.4576620000000  0.4749240000000  0.4564240000000 1.0
C      1  0.5419000000000  0.5242020000000  0.4569670000000 1.0
C      1  0.4805880000000  0.5379270000000  0.4778580000000 1.0
C      1  0.4769810000000  0.4806550000000  0.5391190000000 1.0
C      1  0.5379050000000  0.4772790000000  0.4814930000000 1.0
C      1  0.5184110000000  0.4622570000000  0.4771430000000 1.0
C      1  0.5192980000000  0.5379840000000  0.5223200000000 1.0
C      1  0.4814070000000  0.4625090000000  0.5226060000000 1.0
C      1  0.5229810000000  0.5197010000000  0.5392240000000 1.0
C      1  0.5226580000000  0.4802660000000  0.4611040000000 1.0
C      1  0.4774360000000  0.5193130000000  0.4610500000000 1.0
C      1  0.4621170000000  0.5226190000000  0.4815450000000 1.0
C      1  0.4620860000000  0.4769310000000  0.5184570000000 1.0
C      1  0.5381870000000  0.5232250000000  0.5187790000000 1.0
C      1  0.5743920000000  0.5219270000000  0.4715090000000 1.0
C      1  0.4718400000000  0.5739570000000  0.5219300000000 1.0
C      1  0.5217380000000  0.4716800000000  0.5746520000000 1.0
C      1  0.4256520000000  0.4782680000000  0.4715290000000 1.0
C      1  0.4258960000000  0.5215310000000  0.5282260000000 1.0
C      1  0.5740710000000  0.4784970000000  0.5282450000000 1.0
C      1  0.5274950000000  0.4266600000000  0.5213610000000 1.0
C      1  0.5280850000000  0.5741640000000  0.4778800000000 1.0
C      1  0.4712970000000  0.4255790000000  0.4777510000000 1.0
C      1  0.4779920000000  0.5283850000000  0.5749870000000 1.0
C      1  0.4777420000000  0.4711900000000  0.4246610000000 1.0
C      1  0.5218200000000  0.5278480000000  0.4253170000000 1.0
C      1  0.5541260000000  0.5333830000000  0.5579810000000 1.0
C      1  0.5573490000000  0.5536770000000  0.5331730000000 1.0
C      1  0.5330330000000  0.5569940000000  0.5534860000000 1.0
C      1  0.4456920000000  0.4667380000000  0.5577410000000 1.0
C      1  0.4460510000000  0.5329120000000  0.4421490000000 1.0
C      1  0.5538620000000  0.4668580000000  0.4420330000000 1.0
C      1  0.4422470000000  0.4465050000000  0.5329620000000 1.0
C      1  0.4428920000000  0.5530870000000  0.4668580000000 1.0
C      1  0.5569700000000  0.4467880000000  0.4666980000000 1.0
C      1  0.4666910000000  0.4432080000000  0.5530960000000 1.0
C      1  0.4669980000000  0.5565610000000  0.4464220000000 1.0
C      1  0.5328870000000  0.4429240000000  0.4462270000000 1.0
C      1  0.5394000000000  0.5122940000000  0.5088200000000 1.0
C      1  0.5091870000000  0.5383960000000  0.5111170000000 1.0
C      1  0.5119930000000  0.5091670000000  0.5410930000000 1.0
C      1  0.4610060000000  0.4882170000000  0.5085960000000 1.0
C      1  0.4610310000000  0.5112870000000  0.4912080000000 1.0
C      1  0.5394380000000  0.4888530000000  0.4916230000000 1.0
C      1  0.4907970000000  0.4621040000000  0.5108880000000 1.0
C      1  0.4907180000000  0.5384630000000  0.4890160000000 1.0
C      1  0.5080430000000  0.4615570000000  0.4880120000000 1.0
C      1  0.4880320000000  0.4911840000000  0.5409410000000 1.0
C      1  0.4884590000000  0.5085100000000  0.4593290000000 1.0
C      1  0.5114260000000  0.4901330000000  0.4600740000000 1.0
C      1  0.4497660000000  0.5205220000000  0.5314220000000 1.0
C      1  0.5303970000000  0.4508120000000  0.5203500000000 1.0
C      1  0.5207100000000  0.5303400000000  0.4494710000000 1.0
C      1  0.5500260000000  0.4797660000000  0.5312800000000 1.0
C      1  0.5505300000000  0.5208230000000  0.4686470000000 1.0
C      1  0.4494760000000  0.4790760000000  0.4682980000000 1.0
C      1  0.4692240000000  0.5498170000000  0.5210180000000 1.0
C      1  0.4684380000000  0.4492930000000  0.4784750000000 1.0
C      1  0.5307640000000  0.5499790000000  0.4791000000000 1.0
C      1  0.4787260000000  0.4685350000000  0.4485770000000 1.0
C      1  0.4791290000000  0.5309160000000  0.5510210000000 1.0
C      1  0.5206890000000  0.4693810000000  0.5506030000000 1.0
C      1  0.5442470000000  0.4767730000000  0.4492610000000 1.0
C      1  0.4501400000000  0.5435670000000  0.4768800000000 1.0
C      1  0.4766920000000  0.4503670000000  0.5435380000000 1.0
C      1  0.4556500000000  0.5229670000000  0.4494380000000 1.0
C      1  0.4553760000000  0.4765480000000  0.5504570000000 1.0
C      1  0.5444830000000  0.5235550000000  0.5507350000000 1.0
C      1  0.5496850000000  0.4564340000000  0.4765000000000 1.0
C      1  0.5500670000000  0.5441870000000  0.5231860000000 1.0
C      1  0.4495920000000  0.4559340000000  0.5229350000000 1.0
C      1  0.5229470000000  0.5498230000000  0.5439530000000 1.0
C      1  0.5227290000000  0.4502430000000  0.4556550000000 1.0
C      1  0.4770010000000  0.5493680000000  0.4560400000000 1.0
C      1  0.4182930000000  0.4904640000000  0.5103400000000 1.0
C      1  0.5099820000000  0.4185800000000  0.4903220000000 1.0
C      1  0.4906220000000  0.5100890000000  0.4169730000000 1.0
C      1  0.5821210000000  0.5096120000000  0.5104510000000 1.0
C      1  0.5819480000000  0.4907270000000  0.4895070000000 1.0
C      1  0.4183740000000  0.5093730000000  0.4894640000000 1.0
C      1  0.4894850000000  0.5815050000000  0.4906670000000 1.0
C      1  0.4890870000000  0.4188410000000  0.5091240000000 1.0
C      1  0.5104450000000  0.5815800000000  0.5092610000000 1.0
C      1  0.5091540000000  0.4890680000000  0.4171760000000 1.0
C      1  0.5092860000000  0.5105180000000  0.5831570000000 1.0
C      1  0.4905320000000  0.4895120000000  0.5831030000000 1.0
C      1  0.4683900000000  0.4905750000000  0.4387900000000 1.0
C      1  0.4398030000000  0.4687710000000  0.4904830000000 1.0
C      1  0.4904470000000  0.4397490000000  0.4681600000000 1.0
C      1  0.5313200000000  0.5086260000000  0.4393950000000 1.0
C      1  0.5313530000000  0.4910760000000  0.5609920000000 1.0
C      1  0.4685110000000  0.5090320000000  0.5610470000000 1.0
C      1  0.5603230000000  0.5313690000000  0.4906990000000 1.0
C      1  0.5597780000000  0.4694060000000  0.5091150000000 1.0
C      1  0.4401270000000  0.5308490000000  0.5092670000000 1.0
C      1  0.5088430000000  0.5595380000000  0.4687170000000 1.0
C      1  0.5086240000000  0.4410190000000  0.5307470000000 1.0
C      1  0.4910560000000  0.5596830000000  0.5313620000000 1.0
C      1  0.5124050000000  0.4975460000000  0.5783210000000 1.0
C      1  0.5772430000000  0.5126310000000  0.4975030000000 1.0
C      1  0.4976670000000  0.5765670000000  0.5124720000000 1.0
C      1  0.4874030000000  0.5025050000000  0.5783810000000 1.0
C      1  0.4873060000000  0.4971810000000  0.4217520000000 1.0
C      1  0.5123790000000  0.5019070000000  0.4221510000000 1.0
C      1  0.4232630000000  0.4875100000000  0.4974140000000 1.0
C      1  0.4233790000000  0.5122790000000  0.5023900000000 1.0
C      1  0.5769700000000  0.4878280000000  0.5024800000000 1.0
C      1  0.5018990000000  0.4240230000000  0.5120890000000 1.0
C      1  0.5022810000000  0.5765900000000  0.4874640000000 1.0
C      1  0.4971260000000  0.4233960000000  0.4871740000000 1.0
C      1  0.5269530000000  0.5794150000000  0.4904760000000 1.0
C      1  0.4905520000000  0.5272640000000  0.5804200000000 1.0
C      1  0.5796510000000  0.4909530000000  0.5271310000000 1.0
C      1  0.4724730000000  0.4204570000000  0.4903940000000 1.0
C      1  0.4729740000000  0.5792180000000  0.5093590000000 1.0
C      1  0.5264130000000  0.4211810000000  0.5089120000000 1.0
C      1  0.5092000000000  0.4727910000000  0.5801060000000 1.0
C      1  0.5093040000000  0.5266670000000  0.4199010000000 1.0
C      1  0.4903710000000  0.4723630000000  0.4193930000000 1.0
C      1  0.4204200000000  0.5090700000000  0.5270000000000 1.0
C      1  0.4202860000000  0.4907730000000  0.4727760000000 1.0
C      1  0.5797650000000  0.5093980000000  0.4727410000000 1.0
C      1  0.4332110000000  0.5255790000000  0.4456780000000 1.0
C      1  0.4455710000000  0.4336200000000  0.5255000000000 1.0
C      1  0.5256840000000  0.4459600000000  0.4331870000000 1.0
C      1  0.5667300000000  0.4742660000000  0.4456660000000 1.0
C      1  0.5668650000000  0.5259280000000  0.5543400000000 1.0
C      1  0.4329540000000  0.4741920000000  0.5541720000000 1.0
C      1  0.5539780000000  0.5665290000000  0.5257000000000 1.0
C      1  0.5535900000000  0.4339920000000  0.4742110000000 1.0
C      1  0.4461630000000  0.5659730000000  0.4742610000000 1.0
C      1  0.4742570000000  0.5533430000000  0.4334340000000 1.0
C      1  0.4740220000000  0.4463160000000  0.5661060000000 1.0
C      1  0.5257880000000  0.5538270000000  0.5665310000000 1.0
C      1  0.4452750000000  0.4422540000000  0.4905270000000 1.0
C      1  0.4906690000000  0.4453560000000  0.4415730000000 1.0
C      1  0.4420010000000  0.4907930000000  0.4451630000000 1.0
C      1  0.5542810000000  0.5576850000000  0.4907880000000 1.0
C      1  0.5537630000000  0.4431960000000  0.5088520000000 1.0
C      1  0.4458130000000  0.5572210000000  0.5091820000000 1.0
C      1  0.5090090000000  0.5537550000000  0.4422240000000 1.0
C      1  0.5088450000000  0.4459750000000  0.5573880000000 1.0
C      1  0.4909090000000  0.5542570000000  0.5579830000000 1.0
C      1  0.5579140000000  0.5090650000000  0.4453030000000 1.0
C      1  0.5577360000000  0.4911660000000  0.5546930000000 1.0
C      1  0.4421660000000  0.5089060000000  0.5545970000000 1.0
C      1  0.5550330000000  0.4943340000000  0.4646910000000 1.0
C      1  0.4652770000000  0.5544400000000  0.4945350000000 1.0
C      1  0.4941200000000  0.4653790000000  0.5548460000000 1.0
C      1  0.4452040000000  0.5055700000000  0.4647290000000 1.0
C      1  0.4453080000000  0.4940440000000  0.5350670000000 1.0
C      1  0.5546420000000  0.5061210000000  0.5353070000000 1.0
C      1  0.5342830000000  0.4464100000000  0.4941090000000 1.0
C      1  0.5348130000000  0.5549090000000  0.5055620000000 1.0
C      1  0.4647320000000  0.4449830000000  0.5053010000000 1.0
C      1  0.5057680000000  0.5347840000000  0.5554750000000 1.0
C      1  0.5055840000000  0.4650100000000  0.4440350000000 1.0
C      1  0.4942830000000  0.5342150000000  0.4447520000000 1.0
C      1  0.5003610000000  0.5378510000000  0.4218660000000 1.0
C      1  0.4221140000000  0.5002340000000  0.5383140000000 1.0
C      1  0.5376980000000  0.4230890000000  0.5001310000000 1.0
C      1  0.4993730000000  0.4611390000000  0.4212160000000 1.0
C      1  0.4995660000000  0.5384180000000  0.5783660000000 1.0
C      1  0.5001960000000  0.4616710000000  0.5778790000000 1.0
C      1  0.5778230000000  0.4998080000000  0.5384380000000 1.0
C      1  0.5780040000000  0.5004560000000  0.4614990000000 1.0
C      1  0.4220200000000  0.4996060000000  0.4614640000000 1.0
C      1  0.4617280000000  0.5774180000000  0.5004550000000 1.0
C      1  0.4611750000000  0.4220970000000  0.4993000000000 1.0
C      1  0.5382340000000  0.5777890000000  0.4993910000000 1.0
C      1  0.4269230000000  0.4670430000000  0.5422800000000 1.0
C      1  0.5418400000000  0.4277760000000  0.4670000000000 1.0
C      1  0.4670790000000  0.5416440000000  0.4271330000000 1.0
C      1  0.5727260000000  0.5330520000000  0.5423400000000 1.0
C      1  0.5725170000000  0.4672460000000  0.4576670000000 1.0
C      1  0.4272900000000  0.5327250000000  0.4576150000000 1.0
C      1  0.4580500000000  0.5719930000000  0.4671720000000 1.0
C      1  0.4575200000000  0.4276860000000  0.5325390000000 1.0
C      1  0.5420120000000  0.5724000000000  0.5327400000000 1.0
C      1  0.5328260000000  0.4577330000000  0.4269280000000 1.0
C      1  0.5329710000000  0.5421620000000  0.5728860000000 1.0
C      1  0.4668490000000  0.4579460000000  0.5725630000000 1.0
C      1  0.5471440000000  0.5658380000000  0.5008130000000 1.0
C      1  0.5009700000000  0.5471970000000  0.5662440000000 1.0
C      1  0.5658410000000  0.5011360000000  0.5473520000000 1.0
C      1  0.4522010000000  0.4340020000000  0.5006060000000 1.0
C      1  0.4529910000000  0.5653340000000  0.4991190000000 1.0
C      1  0.5462920000000  0.4352460000000  0.4988890000000 1.0
C      1  0.4988080000000  0.4530610000000  0.5656480000000 1.0
C      1  0.4989910000000  0.5464960000000  0.4340640000000 1.0
C      1  0.5007490000000  0.4522500000000  0.4332200000000 1.0
C      1  0.4340800000000  0.4989630000000  0.5472140000000 1.0
C      1  0.4339930000000  0.5007930000000  0.4525510000000 1.0
C      1  0.5661010000000  0.4990710000000  0.4524720000000 1.0
C      1  0.4195790000000  0.5257640000000  0.4669710000000 1.0
C      1  0.4666670000000  0.4199010000000  0.5254350000000 1.0
C      1  0.5255700000000  0.4667920000000  0.4191800000000 1.0
C      1  0.5801630000000  0.4743410000000  0.4669980000000 1.0
C      1  0.5803390000000  0.5259840000000  0.5329680000000 1.0
C      1  0.4193300000000  0.4740710000000  0.5328640000000 1.0
C      1  0.5328390000000  0.5800890000000  0.5255680000000 1.0
C      1  0.5324580000000  0.4200510000000  0.4739140000000 1.0
C      1  0.4671950000000  0.5797700000000  0.4742610000000 1.0
C      1  0.4741320000000  0.5324190000000  0.4193250000000 1.0
C      1  0.4739850000000  0.4672020000000  0.5802840000000 1.0
C      1  0.5257760000000  0.5328940000000  0.5805540000000 1.0
C      1  0.4361980000000  0.5260150000000  0.5380620000000 1.0
C      1  0.5371590000000  0.4371030000000  0.5257860000000 1.0
C      1  0.5263910000000  0.5376010000000  0.4357330000000 1.0
C      1  0.5636180000000  0.4741260000000  0.5379680000000 1.0
C      1  0.5640590000000  0.5264830000000  0.4616570000000 1.0
C      1  0.4358830000000  0.4736750000000  0.4616470000000 1.0
C      1  0.4620200000000  0.5637570000000  0.5266400000000 1.0
C      1  0.4614390000000  0.4357530000000  0.4729850000000 1.0
C      1  0.5379650000000  0.5640200000000  0.4732590000000 1.0
C      1  0.4730540000000  0.4614020000000  0.4349620000000 1.0
C      1  0.4734440000000  0.5380960000000  0.5645000000000 1.0
C      1  0.5262640000000  0.4620800000000  0.5640540000000 1.0
C      1  0.4528090000000  0.4474280000000  0.5588900000000 1.0
C      1  0.5591170000000  0.4530460000000  0.4469360000000 1.0
C      1  0.4474680000000  0.5586390000000  0.4529530000000 1.0
C      1  0.5469490000000  0.5527160000000  0.5591290000000 1.0
C      1  0.5468310000000  0.4474140000000  0.4407090000000 1.0
C      1  0.4530880000000  0.5522970000000  0.4407740000000 1.0
C      1  0.4408480000000  0.5467850000000  0.4470190000000 1.0
C      1  0.4404670000000  0.4529290000000  0.5528280000000 1.0
C      1  0.5592670000000  0.5471890000000  0.5529880000000 1.0
C      1  0.5525180000000  0.4411500000000  0.4528210000000 1.0
C      1  0.5526650000000  0.5591110000000  0.5470440000000 1.0
C      1  0.4470080000000  0.4410470000000  0.5468300000000 1.0
C      1  0.5590750000000  0.5452360000000  0.4976320000000 1.0
C      1  0.4977240000000  0.5588400000000  0.5453960000000 1.0
C      1  0.5453240000000  0.4979980000000  0.5596440000000 1.0
C      1  0.4407920000000  0.4548820000000  0.4973770000000 1.0
C      1  0.4411670000000  0.5446990000000  0.5023570000000 1.0
C      1  0.5585400000000  0.4556540000000  0.5020760000000 1.0
C      1  0.5019720000000  0.4415810000000  0.5447470000000 1.0
C      1  0.5021850000000  0.5584960000000  0.4547080000000 1.0
C      1  0.4974050000000  0.4408690000000  0.4542080000000 1.0
C      1  0.4545770000000  0.5020710000000  0.5595320000000 1.0
C      1  0.4544700000000  0.4975400000000  0.4402640000000 1.0
C      1  0.5454230000000  0.5021140000000  0.4405050000000 1.0
C      1  0.5302610000000  0.4467210000000  0.5478140000000 1.0
C      1  0.5481600000000  0.5304490000000  0.4457410000000 1.0
C      1  0.4460660000000  0.5479890000000  0.5309670000000 1.0
C      1  0.4694240000000  0.5537480000000  0.5484230000000 1.0
C      1  0.4688260000000  0.4453150000000  0.4507990000000 1.0
C      1  0.5305240000000  0.5533600000000  0.4517460000000 1.0
C      1  0.4511790000000  0.4689120000000  0.4451200000000 1.0
C      1  0.4514820000000  0.5307530000000  0.5545200000000 1.0
C      1  0.5483210000000  0.4693760000000  0.5543580000000 1.0
C      1  0.5533720000000  0.4523530000000  0.5306840000000 1.0
C      1  0.5541140000000  0.5483980000000  0.4689250000000 1.0
C      1  0.4454370000000  0.4515350000000  0.4687840000000 1.0
C      1  0.5255610000000  0.4898840000000  0.5353300000000 1.0
C      1  0.5348430000000  0.5264330000000  0.4887430000000 1.0
C      1  0.4900650000000  0.5338320000000  0.5265840000000 1.0
C      1  0.4744030000000  0.5104220000000  0.5354870000000 1.0
C      1  0.4740490000000  0.4893330000000  0.4640670000000 1.0
C      1  0.5262530000000  0.5095100000000  0.4652420000000 1.0
C      1  0.4651610000000  0.4739320000000  0.4882620000000 1.0
C      1  0.4655420000000  0.5256470000000  0.5114570000000 1.0
C      1  0.5340100000000  0.4756120000000  0.5109060000000 1.0
C      1  0.5102520000000  0.4670780000000  0.5256280000000 1.0
C      1  0.5097830000000  0.5337080000000  0.4735410000000 1.0
C      1  0.4884390000000  0.4649860000000  0.4726340000000 1.0
C      1  0.5128650000000  0.4958980000000  0.5350070000000 1.0
C      1  0.5316740000000  0.5138060000000  0.4954960000000 1.0
C      1  0.4972410000000  0.5295690000000  0.5141280000000 1.0
C      1  0.4871880000000  0.5045600000000  0.5351510000000 1.0
C      1  0.4868510000000  0.4949910000000  0.4644910000000 1.0
C      1  0.5136560000000  0.5022460000000  0.4691210000000 1.0
C      1  0.4690380000000  0.4867740000000  0.4947870000000 1.0
C      1  0.4690790000000  0.5128330000000  0.5048010000000 1.0
C      1  0.5330100000000  0.4884900000000  0.5051540000000 1.0
C      1  0.5030250000000  0.4717290000000  0.5129850000000 1.0
C      1  0.5026360000000  0.5297590000000  0.4860320000000 1.0
C      1  0.4947190000000  0.4687970000000  0.4853530000000 1.0
C      1  0.5671120000000  0.4546360000000  0.4590080000000 1.0
C      1  0.4594710000000  0.5666480000000  0.4545290000000 1.0
C      1  0.4540110000000  0.4590710000000  0.5675890000000 1.0
C      1  0.4328190000000  0.5452680000000  0.4590630000000 1.0
C      1  0.4323090000000  0.4544240000000  0.5408590000000 1.0
C      1  0.5673090000000  0.5456550000000  0.5409570000000 1.0
C      1  0.5405680000000  0.4329870000000  0.4543010000000 1.0
C      1  0.5406050000000  0.5670330000000  0.5453760000000 1.0
C      1  0.4590360000000  0.4331090000000  0.5451350000000 1.0
C      1  0.5457830000000  0.5410550000000  0.5678050000000 1.0
C      1  0.5455220000000  0.4591420000000  0.4322210000000 1.0
C      1  0.4542980000000  0.5405260000000  0.4322440000000 1.0
C      1  0.5124270000000  0.5556750000000  0.5636950000000 1.0
C      1  0.5637310000000  0.5125480000000  0.5560300000000 1.0
C      1  0.5556440000000  0.5634990000000  0.5123120000000 1.0
C      1  0.4873620000000  0.4445510000000  0.5630950000000 1.0
C      1  0.4875980000000  0.5551370000000  0.4363940000000 1.0
C      1  0.5122980000000  0.4440300000000  0.4359480000000 1.0
C      1  0.4361670000000  0.4875520000000  0.5558500000000 1.0
C      1  0.4362160000000  0.5122010000000  0.4439390000000 1.0
C      1  0.5637850000000  0.4876300000000  0.4439120000000 1.0
C      1  0.4438500000000  0.4365840000000  0.5121120000000 1.0
C      1  0.4444590000000  0.5629470000000  0.4876440000000 1.0
C      1  0.5551120000000  0.4372950000000  0.4875550000000 1.0
C      1  0.5542320000000  0.5095800000000  0.5079830000000 1.0
C      1  0.5076150000000  0.5533610000000  0.5089400000000 1.0
C      1  0.5093110000000  0.5083470000000  0.5560270000000 1.0
C      1  0.4461620000000  0.4907070000000  0.5078280000000 1.0
C      1  0.4462080000000  0.5088470000000  0.4919920000000 1.0
C      1  0.5545170000000  0.4910130000000  0.4919540000000 1.0
C      1  0.4922800000000  0.4471950000000  0.5084740000000 1.0
C      1  0.4921870000000  0.5534000000000  0.4911720000000 1.0
C      1  0.5074940000000  0.4466100000000  0.4904820000000 1.0
C      1  0.4906030000000  0.4917910000000  0.5559150000000 1.0
C      1  0.4905860000000  0.5080950000000  0.4441740000000 1.0
C      1  0.5088500000000  0.4920210000000  0.4452750000000 1.0
C      1  0.5129980000000  0.5564230000000  0.4960030000000 1.0
C      1  0.4960270000000  0.5133640000000  0.5580650000000 1.0
C      1  0.5565420000000  0.4967030000000  0.5136640000000 1.0
C      1  0.4864990000000  0.4437150000000  0.4956720000000 1.0
C      1  0.4869150000000  0.5562710000000  0.5041700000000 1.0
C      1  0.5127870000000  0.4445030000000  0.5035850000000 1.0
C      1  0.5038460000000  0.4867200000000  0.5578520000000 1.0
C      1  0.5040590000000  0.5126820000000  0.4424020000000 1.0
C      1  0.4958510000000  0.4865330000000  0.4422420000000 1.0
C      1  0.4437780000000  0.5036280000000  0.5134600000000 1.0
C      1  0.4436900000000  0.4959700000000  0.4863520000000 1.0
C      1  0.5570270000000  0.5040130000000  0.4865650000000 1.0
C      1  0.5339000000000  0.4185910000000  0.4875930000000 1.0
C      1  0.4877830000000  0.5340390000000  0.4173420000000 1.0
C      1  0.4177500000000  0.4877010000000  0.5343000000000 1.0
C      1  0.4655540000000  0.5818040000000  0.4878510000000 1.0
C      1  0.4651680000000  0.4178470000000  0.5118950000000 1.0
C      1  0.5343840000000  0.5821790000000  0.5119990000000 1.0
C      1  0.5120100000000  0.4650650000000  0.4169340000000 1.0
C      1  0.5121830000000  0.5344580000000  0.5826880000000 1.0
C      1  0.4876040000000  0.4655840000000  0.5822690000000 1.0
C      1  0.5821560000000  0.5123810000000  0.5344660000000 1.0
C      1  0.5822880000000  0.4878810000000  0.4655610000000 1.0
C      1  0.4177790000000  0.5121720000000  0.4655090000000 1.0
C      1  0.4982620000000  0.4859030000000  0.4677270000000 1.0
C      1  0.4704320000000  0.5000090000000  0.4859650000000 1.0
C      1  0.4856880000000  0.4695560000000  0.4983000000000 1.0
C      1  0.5008230000000  0.5121610000000  0.4685410000000 1.0
C      1  0.5005090000000  0.4877070000000  0.5319640000000 1.0
C      1  0.4996010000000  0.5128850000000  0.5323610000000 1.0
C      1  0.5310800000000  0.5006020000000  0.4866030000000 1.0
C      1  0.5299130000000  0.5005780000000  0.5135670000000 1.0
C      1  0.4704560000000  0.4995320000000  0.5137460000000 1.0
C      1  0.5133410000000  0.5300970000000  0.4980800000000 1.0
C      1  0.5122870000000  0.4718960000000  0.4995370000000 1.0
C      1  0.4867640000000  0.5297660000000  0.5019350000000 1.0
C      1  0.5046200000000  0.5132330000000  0.4174940000000 1.0
C      1  0.4185600000000  0.5043820000000  0.5135430000000 1.0
C      1  0.5130250000000  0.4191470000000  0.5042300000000 1.0
C      1  0.4951370000000  0.4858300000000  0.4172740000000 1.0
C      1  0.4952680000000  0.5138090000000  0.5829300000000 1.0
C      1  0.5045300000000  0.4862320000000  0.5827700000000 1.0
C      1  0.5817470000000  0.4956700000000  0.5136730000000 1.0
C      1  0.5818720000000  0.5047090000000  0.4862330000000 1.0
C      1  0.4185060000000  0.4954570000000  0.4862490000000 1.0
C      1  0.4863950000000  0.5812110000000  0.5046350000000 1.0
C      1  0.4859120000000  0.4187720000000  0.4951610000000 1.0
C      1  0.5135430000000  0.5813190000000  0.4952660000000 1.0
C      1  0.4820920000000  0.5459970000000  0.5296150000000 1.0
C      1  0.5294970000000  0.4820080000000  0.5472540000000 1.0
C      1  0.5469290000000  0.5295890000000  0.4813170000000 1.0
C      1  0.5177600000000  0.4547240000000  0.5288830000000 1.0
C      1  0.5178310000000  0.5458790000000  0.4705360000000 1.0
C      1  0.4809590000000  0.4529480000000  0.4696720000000 1.0
C      1  0.4703840000000  0.5182750000000  0.5474090000000 1.0
C      1  0.4700980000000  0.4812590000000  0.4522920000000 1.0
C      1  0.5294290000000  0.5174780000000  0.4531310000000 1.0
C      1  0.4531100000000  0.4705160000000  0.4808840000000 1.0
C      1  0.4534720000000  0.5290490000000  0.5187930000000 1.0
C      1  0.5461420000000  0.4714330000000  0.5184890000000 1.0
C      1  0.5578620000000  0.4517720000000  0.4883350000000 1.0
C      1  0.4885180000000  0.5576960000000  0.4509010000000 1.0
C      1  0.4506770000000  0.4883700000000  0.5586340000000 1.0
C      1  0.4418560000000  0.5484530000000  0.4885850000000 1.0
C      1  0.4414120000000  0.4511450000000  0.5111270000000 1.0
C      1  0.5582900000000  0.5489960000000  0.5114060000000 1.0
C      1  0.5111630000000  0.4418040000000  0.4505740000000 1.0
C      1  0.5114060000000  0.5581070000000  0.5491430000000 1.0
C      1  0.4882920000000  0.4421120000000  0.5485650000000 1.0
C      1  0.5492250000000  0.5116960000000  0.5588360000000 1.0
C      1  0.5492860000000  0.4884910000000  0.4411840000000 1.0
C      1  0.4507270000000  0.5112520000000  0.4411940000000 1.0
C      1  0.4794790000000  0.4291830000000  0.4664470000000 1.0
C      1  0.4665170000000  0.4794450000000  0.4284720000000 1.0
C      1  0.4292210000000  0.4669030000000  0.4795750000000 1.0
C      1  0.5197900000000  0.5700370000000  0.4667850000000 1.0
C      1  0.5194750000000  0.4303860000000  0.5327040000000 1.0
C      1  0.4800700000000  0.5701750000000  0.5331580000000 1.0
C      1  0.5331130000000  0.5197210000000  0.4290550000000 1.0
C      1  0.5331280000000  0.4797720000000  0.5711270000000 1.0
C      1  0.4666710000000  0.5202530000000  0.5712820000000 1.0
C      1  0.5706910000000  0.5332240000000  0.4796150000000 1.0
C      1  0.5701630000000  0.4672540000000  0.5201240000000 1.0
C      1  0.4296070000000  0.5328490000000  0.5201780000000 1.0
C      1  0.4347170000000  0.4601140000000  0.4676520000000 1.0
C      1  0.4675650000000  0.4346740000000  0.4594960000000 1.0
C      1  0.4596250000000  0.4676390000000  0.4342610000000 1.0
C      1  0.5649660000000  0.5399790000000  0.4677250000000 1.0
C      1  0.5643330000000  0.4605850000000  0.5319080000000 1.0
C      1  0.4352200000000  0.5395790000000  0.5320700000000 1.0
C      1  0.5316920000000  0.5643870000000  0.4599370000000 1.0
C      1  0.5313760000000  0.4359200000000  0.5393950000000 1.0
C      1  0.4681640000000  0.5646040000000  0.5400360000000 1.0
C      1  0.5398550000000  0.5316020000000  0.4348150000000 1.0
C      1  0.5398270000000  0.4680210000000  0.5651290000000 1.0
C      1  0.4599270000000  0.5320350000000  0.5653660000000 1.0
C      1  0.4504660000000  0.5054010000000  0.5267940000000 1.0
C      1  0.5258120000000  0.4516290000000  0.5053730000000 1.0
C      1  0.5059490000000  0.5258720000000  0.4490510000000 1.0
C      1  0.5496040000000  0.4948950000000  0.5268950000000 1.0
C      1  0.5507220000000  0.5058700000000  0.4731810000000 1.0
C      1  0.4502540000000  0.4941930000000  0.4729740000000 1.0
C      1  0.4735710000000  0.5499910000000  0.5061840000000 1.0
C      1  0.4729100000000  0.4494720000000  0.4935970000000 1.0
C      1  0.5264600000000  0.5504780000000  0.4939860000000 1.0
C      1  0.4937720000000  0.4729640000000  0.4482200000000 1.0
C      1  0.4940650000000  0.5265260000000  0.5513370000000 1.0
C      1  0.5058040000000  0.4737380000000  0.5507330000000 1.0
C      1  0.5255070000000  0.4745230000000  0.4742980000000 1.0
C      1  0.4743180000000  0.5254210000000  0.4741180000000 1.0
C      1  0.4742940000000  0.4745380000000  0.5260580000000 1.0
C      1  0.5258590000000  0.5256890000000  0.5260680000000 1.0
END
