TITL C-45663-7166-59 0.0425434658615947 1000000 -1648.42032186331 0 0 240 (C1) n - 1
REM
REM in /home/chem/mssmkc/work/GAP20/Larger-Clusters/Only-C240/New
REM
REM
REM
REM
REM
REM ./C.cell (28c9a5b7c779176d5635a9b681e7a0e1)
REM
REM compiler GCC version 8.3.0
REM options -cpp -mtune=generic -march=x86-64 -g -O0
REM seed -250769892 1599592199 -1562657605 -2086345500 -1603754360 -387755238 -122076524 -599631483 -495084853 -839624298 -555178330 621551877 1725106489 -824896196 -123437890 651299710 1834651426 449858785 -1240969496 649349554 -1589424993 1977990917 -1325686745 -819143170 -1397519608 1890823312 480508790 -1962094773 -770306855 -1968658029 1953884525 -1210620381 -1211814813
REM
CELL 1.54180  100.00000  100.00000  100.00000   90.00000   90.00000   90.00000
LATT -1
SFAC C  
C      1  0.5670790000000  0.4833170000000  0.4844820000000 1.0
C      1  0.5584280000000  0.4766060000000  0.5208810000000 1.0
C      1  0.5625580000000  0.4888710000000  0.5267320000000 1.0
C      1  0.5677100000000  0.5181870000000  0.5047960000000 1.0
C      1  0.5669590000000  0.5234690000000  0.4926720000000 1.0
C      1  0.5674340000000  0.4939660000000  0.4775220000000 1.0
C      1  0.4258460000000  0.4827910000000  0.5066940000000 1.0
C      1  0.4264410000000  0.4848690000000  0.4939720000000 1.0
C      1  0.4305840000000  0.4984310000000  0.4728740000000 1.0
C      1  0.4299480000000  0.5207980000000  0.4847940000000 1.0
C      1  0.4269000000000  0.5182110000000  0.5100680000000 1.0
C      1  0.4415370000000  0.4978460000000  0.5369970000000 1.0
C      1  0.4975420000000  0.5467490000000  0.5040300000000 1.0
C      1  0.4979140000000  0.5283940000000  0.4606640000000 1.0
C      1  0.4968210000000  0.4804080000000  0.4538390000000 1.0
C      1  0.4963490000000  0.4516910000000  0.4942130000000 1.0
C      1  0.4958570000000  0.4703760000000  0.5374600000000 1.0
C      1  0.4956380000000  0.5172400000000  0.5405220000000 1.0
C      1  0.5062110000000  0.5482820000000  0.4931580000000 1.0
C      1  0.5047560000000  0.5270740000000  0.5358490000000 1.0
C      1  0.5040930000000  0.4808290000000  0.5420320000000 1.0
C      1  0.5051790000000  0.4521340000000  0.5053720000000 1.0
C      1  0.5051460000000  0.4704290000000  0.4593560000000 1.0
C      1  0.5056490000000  0.5184900000000  0.4541770000000 1.0
C      1  0.4901570000000  0.5164180000000  0.5009840000000 1.0
C      1  0.4841260000000  0.5088590000000  0.4891130000000 1.0
C      1  0.4905070000000  0.4955050000000  0.4888590000000 1.0
C      1  0.4854200000000  0.4881290000000  0.5003190000000 1.0
C      1  0.4912500000000  0.4943350000000  0.5125000000000 1.0
C      1  0.4853810000000  0.5088080000000  0.5129030000000 1.0
C      1  0.5054150000000  0.5165450000000  0.5007150000000 1.0
C      1  0.5110230000000  0.5079580000000  0.5119850000000 1.0
C      1  0.5057350000000  0.4941280000000  0.5117300000000 1.0
C      1  0.5112360000000  0.4880390000000  0.4988360000000 1.0
C      1  0.5051760000000  0.4958460000000  0.4881160000000 1.0
C      1  0.5112260000000  0.5096090000000  0.4884920000000 1.0
C      1  0.4802950000000  0.5606430000000  0.4703000000000 1.0
C      1  0.4788700000000  0.5061990000000  0.4320080000000 1.0
C      1  0.4789670000000  0.4447570000000  0.4608540000000 1.0
C      1  0.4826900000000  0.4358650000000  0.5286590000000 1.0
C      1  0.4801410000000  0.4931080000000  0.5666780000000 1.0
C      1  0.4822570000000  0.5548460000000  0.5385520000000 1.0
C      1  0.5193490000000  0.5620020000000  0.5287910000000 1.0
C      1  0.5164790000000  0.5070530000000  0.5676180000000 1.0
C      1  0.5217660000000  0.4454480000000  0.5399860000000 1.0
C      1  0.5220320000000  0.4384870000000  0.4720770000000 1.0
C      1  0.5214770000000  0.4933240000000  0.4302660000000 1.0
C      1  0.5232020000000  0.5551150000000  0.4597430000000 1.0
C      1  0.4611070000000  0.5297660000000  0.4498150000000 1.0
C      1  0.4598790000000  0.4714730000000  0.4486920000000 1.0
C      1  0.4610620000000  0.4383600000000  0.5012690000000 1.0
C      1  0.4602030000000  0.4682240000000  0.5513750000000 1.0
C      1  0.4607960000000  0.5292440000000  0.5503630000000 1.0
C      1  0.4616480000000  0.5590290000000  0.5001820000000 1.0
C      1  0.5389080000000  0.5302830000000  0.5534510000000 1.0
C      1  0.5402840000000  0.4720020000000  0.5521460000000 1.0
C      1  0.5419260000000  0.4432360000000  0.5007760000000 1.0
C      1  0.5413350000000  0.4695290000000  0.4467760000000 1.0
C      1  0.5421870000000  0.5278870000000  0.4481520000000 1.0
C      1  0.5413410000000  0.5616150000000  0.5004590000000 1.0
C      1  0.5107090000000  0.4430350000000  0.4791290000000 1.0
C      1  0.5102200000000  0.4532890000000  0.5391630000000 1.0
C      1  0.5067350000000  0.5109420000000  0.5582610000000 1.0
C      1  0.5093760000000  0.5571580000000  0.5201670000000 1.0
C      1  0.5117930000000  0.5467450000000  0.4597760000000 1.0
C      1  0.5101940000000  0.4890710000000  0.4376370000000 1.0
C      1  0.4931240000000  0.4408460000000  0.5207440000000 1.0
C      1  0.4900200000000  0.4535060000000  0.4613650000000 1.0
C      1  0.4900080000000  0.5091150000000  0.4401730000000 1.0
C      1  0.4910820000000  0.5549250000000  0.4773960000000 1.0
C      1  0.4919980000000  0.5449300000000  0.5369270000000 1.0
C      1  0.4903950000000  0.4893570000000  0.5579460000000 1.0
C      1  0.5302820000000  0.4386680000000  0.5325070000000 1.0
C      1  0.5247710000000  0.4971210000000  0.5706170000000 1.0
C      1  0.5269100000000  0.5588180000000  0.5392500000000 1.0
C      1  0.5309050000000  0.5627410000000  0.4673800000000 1.0
C      1  0.5295980000000  0.5035830000000  0.4280340000000 1.0
C      1  0.5298400000000  0.4409160000000  0.4616360000000 1.0
C      1  0.4712460000000  0.4371100000000  0.4683620000000 1.0
C      1  0.4704520000000  0.4964660000000  0.4285190000000 1.0
C      1  0.4719350000000  0.5596060000000  0.4599170000000 1.0
C      1  0.4740420000000  0.5629000000000  0.5316720000000 1.0
C      1  0.4715510000000  0.5029310000000  0.5693810000000 1.0
C      1  0.4752680000000  0.4389120000000  0.5391870000000 1.0
C      1  0.4586610000000  0.5657330000000  0.5118060000000 1.0
C      1  0.4565130000000  0.5427210000000  0.4488890000000 1.0
C      1  0.4557050000000  0.4778280000000  0.4371260000000 1.0
C      1  0.4574540000000  0.4337800000000  0.4889990000000 1.0
C      1  0.4587430000000  0.4546050000000  0.5495470000000 1.0
C      1  0.4574570000000  0.5225190000000  0.5617340000000 1.0
C      1  0.5446350000000  0.5662820000000  0.4881140000000 1.0
C      1  0.5417240000000  0.5435710000000  0.5528620000000 1.0
C      1  0.5419040000000  0.4806020000000  0.5628370000000 1.0
C      1  0.5459330000000  0.4383900000000  0.5129490000000 1.0
C      1  0.5445630000000  0.4565180000000  0.4487390000000 1.0
C      1  0.5457900000000  0.5206770000000  0.4370140000000 1.0
C      1  0.4525750000000  0.4911480000000  0.5431220000000 1.0
C      1  0.4593650000000  0.5273880000000  0.5266680000000 1.0
C      1  0.4595610000000  0.5364260000000  0.4902050000000 1.0
C      1  0.4606460000000  0.5096310000000  0.4644690000000 1.0
C      1  0.4601260000000  0.4729170000000  0.4732590000000 1.0
C      1  0.4575490000000  0.4553250000000  0.5173540000000 1.0
C      1  0.5446870000000  0.4918640000000  0.4547170000000 1.0
C      1  0.5399320000000  0.5278100000000  0.4721820000000 1.0
C      1  0.5446400000000  0.5433720000000  0.5160110000000 1.0
C      1  0.5429050000000  0.5080040000000  0.5457180000000 1.0
C      1  0.5475530000000  0.4690920000000  0.5279750000000 1.0
C      1  0.5394230000000  0.4641740000000  0.4894630000000 1.0
C      1  0.4747810000000  0.4717390000000  0.5513490000000 1.0
C      1  0.4757800000000  0.5300290000000  0.5482800000000 1.0
C      1  0.4763220000000  0.5580380000000  0.4971600000000 1.0
C      1  0.4759500000000  0.5278740000000  0.4483980000000 1.0
C      1  0.4748020000000  0.4689870000000  0.4493110000000 1.0
C      1  0.4760390000000  0.4395840000000  0.5028060000000 1.0
C      1  0.5264650000000  0.4721900000000  0.4461110000000 1.0
C      1  0.5270310000000  0.5305030000000  0.4488480000000 1.0
C      1  0.5265110000000  0.5602730000000  0.5026080000000 1.0
C      1  0.5240550000000  0.5275940000000  0.5520290000000 1.0
C      1  0.5255640000000  0.4699340000000  0.5493360000000 1.0
C      1  0.5267470000000  0.4422810000000  0.4984360000000 1.0
C      1  0.5337210000000  0.4880730000000  0.5691010000000 1.0
C      1  0.5347760000000  0.5527660000000  0.5471850000000 1.0
C      1  0.5386230000000  0.5665640000000  0.4768510000000 1.0
C      1  0.5382050000000  0.5127060000000  0.4304880000000 1.0
C      1  0.5379240000000  0.4468310000000  0.4537680000000 1.0
C      1  0.5388450000000  0.4364010000000  0.5233230000000 1.0
C      1  0.4624020000000  0.4866720000000  0.4306220000000 1.0
C      1  0.4635330000000  0.5527790000000  0.4530660000000 1.0
C      1  0.4658470000000  0.5666430000000  0.5224710000000 1.0
C      1  0.4638510000000  0.5129250000000  0.5673140000000 1.0
C      1  0.4666180000000  0.4451990000000  0.5463000000000 1.0
C      1  0.4634230000000  0.4334980000000  0.4777340000000 1.0
C      1  0.5045920000000  0.5383820000000  0.4684840000000 1.0
C      1  0.5029900000000  0.4924720000000  0.4491640000000 1.0
C      1  0.5023640000000  0.4541420000000  0.4811200000000 1.0
C      1  0.5024060000000  0.4602670000000  0.5299770000000 1.0
C      1  0.5017790000000  0.5058350000000  0.5459620000000 1.0
C      1  0.5035490000000  0.5447690000000  0.5166670000000 1.0
C      1  0.4989000000000  0.5370950000000  0.5276120000000 1.0
C      1  0.4972550000000  0.4925360000000  0.5461340000000 1.0
C      1  0.4992270000000  0.4531730000000  0.5182250000000 1.0
C      1  0.4989480000000  0.4609770000000  0.4687760000000 1.0
C      1  0.4990320000000  0.5062360000000  0.4501880000000 1.0
C      1  0.5003320000000  0.5450610000000  0.4803810000000 1.0
C      1  0.5485680000000  0.5534710000000  0.5093830000000 1.0
C      1  0.5475500000000  0.5295290000000  0.4603260000000 1.0
C      1  0.5487970000000  0.4809890000000  0.4495750000000 1.0
C      1  0.5471160000000  0.4528900000000  0.4930970000000 1.0
C      1  0.5482690000000  0.4692010000000  0.5415400000000 1.0
C      1  0.5467910000000  0.5190090000000  0.5508010000000 1.0
C      1  0.4552980000000  0.5493180000000  0.4930380000000 1.0
C      1  0.4540300000000  0.5318140000000  0.5387040000000 1.0
C      1  0.4518430000000  0.4786710000000  0.5491060000000 1.0
C      1  0.4533530000000  0.4452860000000  0.5107460000000 1.0
C      1  0.4539840000000  0.4699500000000  0.4607550000000 1.0
C      1  0.4559320000000  0.5183190000000  0.4548690000000 1.0
C      1  0.5672490000000  0.5103720000000  0.5147650000000 1.0
C      1  0.5676680000000  0.5165310000000  0.4815950000000 1.0
C      1  0.5670020000000  0.5064240000000  0.4732690000000 1.0
C      1  0.5658740000000  0.4778970000000  0.4963600000000 1.0
C      1  0.5623300000000  0.4743140000000  0.5077940000000 1.0
C      1  0.5667640000000  0.5000720000000  0.5227970000000 1.0
C      1  0.4277050000000  0.5211500000000  0.4973630000000 1.0
C      1  0.4241260000000  0.5145830000000  0.5219000000000 1.0
C      1  0.4330680000000  0.4931750000000  0.5286330000000 1.0
C      1  0.4283810000000  0.4864870000000  0.5185530000000 1.0
C      1  0.4282590000000  0.4892430000000  0.4822030000000 1.0
C      1  0.4302900000000  0.5113150000000  0.4754800000000 1.0
C      1  0.5289710000000  0.5386480000000  0.4922580000000 1.0
C      1  0.5279630000000  0.5100260000000  0.4621140000000 1.0
C      1  0.5269400000000  0.4749200000000  0.4703430000000 1.0
C      1  0.5275300000000  0.4638790000000  0.5104350000000 1.0
C      1  0.5265170000000  0.4902000000000  0.5359840000000 1.0
C      1  0.5287240000000  0.5265860000000  0.5279290000000 1.0
C      1  0.4761930000000  0.5407650000000  0.5132450000000 1.0
C      1  0.4708190000000  0.5088590000000  0.5382740000000 1.0
C      1  0.4729320000000  0.4734800000000  0.5274870000000 1.0
C      1  0.4729580000000  0.4617820000000  0.4927500000000 1.0
C      1  0.4752020000000  0.4911980000000  0.4564680000000 1.0
C      1  0.4761220000000  0.5328830000000  0.4711910000000 1.0
C      1  0.4634540000000  0.5152800000000  0.4768850000000 1.0
C      1  0.4633360000000  0.4869130000000  0.4759380000000 1.0
C      1  0.4690890000000  0.4709940000000  0.5032890000000 1.0
C      1  0.4695090000000  0.4872240000000  0.5264570000000 1.0
C      1  0.4649690000000  0.5144420000000  0.5262970000000 1.0
C      1  0.4617370000000  0.5283020000000  0.5016150000000 1.0
C      1  0.5304930000000  0.5125610000000  0.5260560000000 1.0
C      1  0.5292450000000  0.4844490000000  0.5231610000000 1.0
C      1  0.5313690000000  0.4717430000000  0.4989550000000 1.0
C      1  0.5297750000000  0.4888480000000  0.4731840000000 1.0
C      1  0.5322050000000  0.5157990000000  0.4744460000000 1.0
C      1  0.5310770000000  0.5292260000000  0.5031540000000 1.0
C      1  0.4649980000000  0.4926650000000  0.4884570000000 1.0
C      1  0.4703170000000  0.4856400000000  0.5012390000000 1.0
C      1  0.4666660000000  0.4931050000000  0.5140820000000 1.0
C      1  0.4688970000000  0.5080090000000  0.5136870000000 1.0
C      1  0.4639060000000  0.5146300000000  0.5014030000000 1.0
C      1  0.4677650000000  0.5076870000000  0.4887770000000 1.0
C      1  0.5305130000000  0.4923990000000  0.5116630000000 1.0
C      1  0.5269270000000  0.4861110000000  0.4981910000000 1.0
C      1  0.5303930000000  0.4944010000000  0.4859750000000 1.0
C      1  0.5274850000000  0.5095450000000  0.4873690000000 1.0
C      1  0.5312790000000  0.5155700000000  0.5008550000000 1.0
C      1  0.5270610000000  0.5071680000000  0.5128060000000 1.0
C      1  0.4832290000000  0.5483630000000  0.5044800000000 1.0
C      1  0.4834150000000  0.5295640000000  0.4601400000000 1.0
C      1  0.4823830000000  0.4801420000000  0.4530840000000 1.0
C      1  0.4819520000000  0.4500760000000  0.4958650000000 1.0
C      1  0.4813550000000  0.4698720000000  0.5389140000000 1.0
C      1  0.4813930000000  0.5183280000000  0.5434000000000 1.0
C      1  0.5205080000000  0.5503030000000  0.4948900000000 1.0
C      1  0.5189670000000  0.5289640000000  0.5391050000000 1.0
C      1  0.5184320000000  0.4810580000000  0.5445490000000 1.0
C      1  0.5196830000000  0.4516890000000  0.5058290000000 1.0
C      1  0.5195540000000  0.4712860000000  0.4581920000000 1.0
C      1  0.5201820000000  0.5191400000000  0.4534160000000 1.0
C      1  0.5331460000000  0.4701440000000  0.5219830000000 1.0
C      1  0.5330570000000  0.5032220000000  0.5370370000000 1.0
C      1  0.5342280000000  0.5340170000000  0.5166420000000 1.0
C      1  0.5361110000000  0.5365010000000  0.4814730000000 1.0
C      1  0.5340580000000  0.4971290000000  0.4619160000000 1.0
C      1  0.5343800000000  0.4668460000000  0.4773900000000 1.0
C      1  0.4667210000000  0.4643780000000  0.4814800000000 1.0
C      1  0.4651310000000  0.4954350000000  0.4638710000000 1.0
C      1  0.4651180000000  0.5298390000000  0.4780050000000 1.0
C      1  0.4643630000000  0.5347040000000  0.5144430000000 1.0
C      1  0.4667490000000  0.4951960000000  0.5384410000000 1.0
C      1  0.4664910000000  0.4660700000000  0.5166980000000 1.0
C      1  0.4828480000000  0.4349280000000  0.5140670000000 1.0
C      1  0.4809680000000  0.4797600000000  0.5608220000000 1.0
C      1  0.4823680000000  0.5420370000000  0.5461600000000 1.0
C      1  0.4817990000000  0.5616150000000  0.4849430000000 1.0
C      1  0.4808370000000  0.5191190000000  0.4388540000000 1.0
C      1  0.4801840000000  0.4566450000000  0.4523730000000 1.0
C      1  0.5210950000000  0.4377920000000  0.4866410000000 1.0
C      1  0.5203670000000  0.4799380000000  0.4361420000000 1.0
C      1  0.5220830000000  0.5431450000000  0.4512550000000 1.0
C      1  0.5198110000000  0.5639900000000  0.5143270000000 1.0
C      1  0.5164760000000  0.5201480000000  0.5609520000000 1.0
C      1  0.5198560000000  0.4574380000000  0.5479590000000 1.0
END
