TITL C-45664-8239-54 7.64374491868403 1000000 -1631.78265485723 0 0 240 (C1) n - 1
REM
REM in /home/chem/mssmkc/work/GAP20/Larger-Clusters/Only-C240/New
REM
REM
REM
REM
REM
REM ./C.cell (28c9a5b7c779176d5635a9b681e7a0e1)
REM
REM compiler GCC version 8.3.0
REM options -cpp -mtune=generic -march=x86-64 -g -O0
REM seed 372913251 1533886841 -781295170 -1680158800 -455600996 -373937378 666793505 1559368905 -1465536734 341603579 -1428186843 -617323718 1154224564 1046760000 2134883516 1533516840 1889609864 -1211963763 217588364 -9070915 322423446 1369784430 -657830758 -457423369 300725008 1303973047 -1400248296 212498747 -1830105909 -2078604209 -800099974 421664965 636618386
REM
CELL 1.54180  100.00000  100.00000  100.00000   90.00000   90.00000   90.00000
LATT -1
SFAC C  
C      1  0.4931640000000  0.5127790000000  0.4925030000000 1.0
C      1  0.4886730000000  0.5004620000000  0.4857860000000 1.0
C      1  0.4934390000000  0.4888140000000  0.4928540000000 1.0
C      1  0.4883130000000  0.4892380000000  0.5066020000000 1.0
C      1  0.4930890000000  0.5008300000000  0.5134150000000 1.0
C      1  0.4881940000000  0.5125910000000  0.5060260000000 1.0
C      1  0.5116350000000  0.5128380000000  0.5068910000000 1.0
C      1  0.5070910000000  0.5008620000000  0.5135100000000 1.0
C      1  0.5123230000000  0.4892390000000  0.5062190000000 1.0
C      1  0.5074300000000  0.4890840000000  0.4928260000000 1.0
C      1  0.5121000000000  0.5014060000000  0.4862510000000 1.0
C      1  0.5070250000000  0.5131420000000  0.4928930000000 1.0
C      1  0.5307940000000  0.5238930000000  0.4603550000000 1.0
C      1  0.5308480000000  0.4778130000000  0.4611230000000 1.0
C      1  0.5315360000000  0.4562790000000  0.4972620000000 1.0
C      1  0.5312580000000  0.4786060000000  0.5384650000000 1.0
C      1  0.5314520000000  0.5214850000000  0.5400340000000 1.0
C      1  0.5310010000000  0.5462360000000  0.5009670000000 1.0
C      1  0.4695350000000  0.5224070000000  0.5389660000000 1.0
C      1  0.4692220000000  0.4802190000000  0.5396890000000 1.0
C      1  0.4699570000000  0.4557600000000  0.5000050000000 1.0
C      1  0.4691410000000  0.4759140000000  0.4617860000000 1.0
C      1  0.4687340000000  0.5219940000000  0.4599350000000 1.0
C      1  0.4689110000000  0.5460040000000  0.4996460000000 1.0
C      1  0.4288550000000  0.4929860000000  0.5130000000000 1.0
C      1  0.4285190000000  0.5072670000000  0.5133570000000 1.0
C      1  0.4289070000000  0.5149330000000  0.5010050000000 1.0
C      1  0.4290360000000  0.5084290000000  0.4881250000000 1.0
C      1  0.4301370000000  0.4941790000000  0.4874690000000 1.0
C      1  0.4327140000000  0.4869720000000  0.5001650000000 1.0
C      1  0.5718730000000  0.4931910000000  0.4866180000000 1.0
C      1  0.5712810000000  0.5077120000000  0.4861370000000 1.0
C      1  0.5711650000000  0.5156280000000  0.4981920000000 1.0
C      1  0.5702970000000  0.5090590000000  0.5108710000000 1.0
C      1  0.5679130000000  0.4944180000000  0.5108070000000 1.0
C      1  0.5717460000000  0.4863450000000  0.4991580000000 1.0
C      1  0.4748180000000  0.5682390000000  0.5097790000000 1.0
C      1  0.4744400000000  0.5400030000000  0.4436550000000 1.0
C      1  0.4749930000000  0.4684970000000  0.4386840000000 1.0
C      1  0.4797230000000  0.4089080000000  0.4734470000000 1.0
C      1  0.4768100000000  0.4644890000000  0.5571940000000 1.0
C      1  0.4883960000000  0.5308670000000  0.5812350000000 1.0
C      1  0.5247900000000  0.5694500000000  0.4942690000000 1.0
C      1  0.5263150000000  0.5376470000000  0.5583370000000 1.0
C      1  0.4950390000000  0.4646800000000  0.5886330000000 1.0
C      1  0.5254030000000  0.4330800000000  0.5039100000000 1.0
C      1  0.5207720000000  0.4305880000000  0.4348190000000 1.0
C      1  0.5249700000000  0.5274550000000  0.4361210000000 1.0
C      1  0.4803310000000  0.5136240000000  0.5338840000000 1.0
C      1  0.4803480000000  0.5373570000000  0.5028570000000 1.0
C      1  0.4800210000000  0.5209790000000  0.4692510000000 1.0
C      1  0.4808590000000  0.4828310000000  0.4673610000000 1.0
C      1  0.4807700000000  0.4643100000000  0.4944280000000 1.0
C      1  0.4807840000000  0.4820030000000  0.5307780000000 1.0
C      1  0.5195350000000  0.5164740000000  0.4661530000000 1.0
C      1  0.5198380000000  0.5375130000000  0.4971960000000 1.0
C      1  0.5196240000000  0.5200580000000  0.5313540000000 1.0
C      1  0.5201720000000  0.4873170000000  0.5337290000000 1.0
C      1  0.5200600000000  0.4648610000000  0.5006100000000 1.0
C      1  0.5201770000000  0.4776650000000  0.4714550000000 1.0
C      1  0.5287140000000  0.5213310000000  0.5201600000000 1.0
C      1  0.5298700000000  0.5286540000000  0.4914090000000 1.0
C      1  0.5293520000000  0.5079080000000  0.4722140000000 1.0
C      1  0.5308070000000  0.4803580000000  0.4809000000000 1.0
C      1  0.5294550000000  0.4739120000000  0.5065990000000 1.0
C      1  0.5303880000000  0.4950670000000  0.5272500000000 1.0
C      1  0.4700750000000  0.5214260000000  0.4798830000000 1.0
C      1  0.4707190000000  0.5277330000000  0.5074140000000 1.0
C      1  0.4697850000000  0.5065310000000  0.5269540000000 1.0
C      1  0.4714610000000  0.4809970000000  0.5198270000000 1.0
C      1  0.4703540000000  0.4736320000000  0.4910430000000 1.0
C      1  0.4716000000000  0.4929910000000  0.4718850000000 1.0
C      1  0.5151140000000  0.5643360000000  0.5406050000000 1.0
C      1  0.5146140000000  0.5662780000000  0.4619260000000 1.0
C      1  0.5159930000000  0.4972300000000  0.4213860000000 1.0
C      1  0.5138320000000  0.4321080000000  0.4596870000000 1.0
C      1  0.5173370000000  0.4338810000000  0.5378680000000 1.0
C      1  0.5101430000000  0.4965680000000  0.5737030000000 1.0
C      1  0.4842160000000  0.5666330000000  0.4627850000000 1.0
C      1  0.4841830000000  0.5655510000000  0.5433460000000 1.0
C      1  0.4836960000000  0.5052300000000  0.5768050000000 1.0
C      1  0.4865470000000  0.4357910000000  0.5395610000000 1.0
C      1  0.4865530000000  0.4308940000000  0.4616450000000 1.0
C      1  0.4852620000000  0.4976770000000  0.4244860000000 1.0
C      1  0.5418340000000  0.5363940000000  0.4966130000000 1.0
C      1  0.5415080000000  0.5159450000000  0.4677990000000 1.0
C      1  0.5419690000000  0.4810900000000  0.4708660000000 1.0
C      1  0.5419830000000  0.4665420000000  0.5018690000000 1.0
C      1  0.5420580000000  0.4862440000000  0.5310300000000 1.0
C      1  0.5415290000000  0.5208760000000  0.5284340000000 1.0
C      1  0.4583830000000  0.5353940000000  0.5028540000000 1.0
C      1  0.4584740000000  0.5153500000000  0.5314620000000 1.0
C      1  0.4588940000000  0.4812030000000  0.5284960000000 1.0
C      1  0.4589100000000  0.4657720000000  0.4970490000000 1.0
C      1  0.4589060000000  0.4853450000000  0.4682240000000 1.0
C      1  0.4580220000000  0.5206580000000  0.4707160000000 1.0
C      1  0.4353170000000  0.4733240000000  0.5273750000000 1.0
C      1  0.4351120000000  0.5106460000000  0.5377800000000 1.0
C      1  0.4346610000000  0.5378340000000  0.5098900000000 1.0
C      1  0.4347340000000  0.5279580000000  0.4725400000000 1.0
C      1  0.4350820000000  0.4903580000000  0.4628840000000 1.0
C      1  0.4352700000000  0.4626710000000  0.4897620000000 1.0
C      1  0.5655150000000  0.4736670000000  0.4715350000000 1.0
C      1  0.5652170000000  0.5114050000000  0.4619140000000 1.0
C      1  0.5650170000000  0.5388170000000  0.4891330000000 1.0
C      1  0.5652240000000  0.5283990000000  0.5265040000000 1.0
C      1  0.5657240000000  0.4912970000000  0.5370610000000 1.0
C      1  0.5656710000000  0.4639920000000  0.5090970000000 1.0
C      1  0.4351770000000  0.4719440000000  0.4998470000000 1.0
C      1  0.4354710000000  0.4866910000000  0.5241840000000 1.0
C      1  0.4348140000000  0.5143760000000  0.5244990000000 1.0
C      1  0.4352500000000  0.5279780000000  0.5002060000000 1.0
C      1  0.4347420000000  0.5146530000000  0.4761420000000 1.0
C      1  0.4358420000000  0.4869700000000  0.4763110000000 1.0
C      1  0.5653070000000  0.4734120000000  0.4990930000000 1.0
C      1  0.5655850000000  0.4870380000000  0.4749290000000 1.0
C      1  0.5647270000000  0.5148340000000  0.4753030000000 1.0
C      1  0.5652700000000  0.5290390000000  0.4988470000000 1.0
C      1  0.5646420000000  0.5150660000000  0.5227360000000 1.0
C      1  0.5656850000000  0.4871590000000  0.5239970000000 1.0
C      1  0.4739060000000  0.4892980000000  0.5082290000000 1.0
C      1  0.4677700000000  0.5023010000000  0.5132640000000 1.0
C      1  0.4738610000000  0.5138670000000  0.5047990000000 1.0
C      1  0.4682700000000  0.5119540000000  0.4906230000000 1.0
C      1  0.4745000000000  0.4987320000000  0.4849120000000 1.0
C      1  0.4688990000000  0.4875710000000  0.4937890000000 1.0
C      1  0.5327090000000  0.4902150000000  0.4913260000000 1.0
C      1  0.5264000000000  0.5032450000000  0.4855770000000 1.0
C      1  0.5318940000000  0.5146520000000  0.4942820000000 1.0
C      1  0.5258240000000  0.5129200000000  0.5086800000000 1.0
C      1  0.5316890000000  0.4997520000000  0.5138180000000 1.0
C      1  0.5267530000000  0.4880670000000  0.5051760000000 1.0
C      1  0.4537990000000  0.5137870000000  0.4947280000000 1.0
C      1  0.4511970000000  0.5031360000000  0.4862630000000 1.0
C      1  0.4544400000000  0.4896910000000  0.4910350000000 1.0
C      1  0.4485960000000  0.4876770000000  0.5038750000000 1.0
C      1  0.4531740000000  0.4983460000000  0.5132870000000 1.0
C      1  0.4507980000000  0.5111990000000  0.5086680000000 1.0
C      1  0.5490800000000  0.5142720000000  0.5039370000000 1.0
C      1  0.5460880000000  0.5033830000000  0.5132310000000 1.0
C      1  0.5520390000000  0.4913270000000  0.5085020000000 1.0
C      1  0.5473620000000  0.4884190000000  0.4946050000000 1.0
C      1  0.5495110000000  0.4988750000000  0.4857570000000 1.0
C      1  0.5463660000000  0.5122060000000  0.4905190000000 1.0
C      1  0.4721560000000  0.4873890000000  0.5628090000000 1.0
C      1  0.4774050000000  0.5439030000000  0.5510440000000 1.0
C      1  0.4774650000000  0.5645860000000  0.4867510000000 1.0
C      1  0.4774460000000  0.5174760000000  0.4377010000000 1.0
C      1  0.4764560000000  0.4532040000000  0.4562920000000 1.0
C      1  0.4788930000000  0.4378750000000  0.5162650000000 1.0
C      1  0.5222720000000  0.4791300000000  0.4368310000000 1.0
C      1  0.5217870000000  0.5446020000000  0.4517590000000 1.0
C      1  0.5221970000000  0.5627140000000  0.5165940000000 1.0
C      1  0.5245510000000  0.5145380000000  0.5623540000000 1.0
C      1  0.5243310000000  0.4555140000000  0.5476250000000 1.0
C      1  0.5238050000000  0.4394410000000  0.4814340000000 1.0
C      1  0.4837150000000  0.4852830000000  0.4232690000000 1.0
C      1  0.4857600000000  0.4180210000000  0.4646390000000 1.0
C      1  0.4865080000000  0.4419250000000  0.5507910000000 1.0
C      1  0.4872560000000  0.5167090000000  0.5823990000000 1.0
C      1  0.4827550000000  0.5728760000000  0.5329740000000 1.0
C      1  0.4824140000000  0.5619030000000  0.4513070000000 1.0
C      1  0.5040170000000  0.4865320000000  0.5782160000000 1.0
C      1  0.5176790000000  0.4273140000000  0.5269370000000 1.0
C      1  0.5147060000000  0.4278580000000  0.4471790000000 1.0
C      1  0.5171810000000  0.5099300000000  0.4201190000000 1.0
C      1  0.5163940000000  0.5739070000000  0.4717320000000 1.0
C      1  0.5170820000000  0.5593130000000  0.5519560000000 1.0
C      1  0.5276410000000  0.5325260000000  0.4487930000000 1.0
C      1  0.5275530000000  0.4765150000000  0.4479460000000 1.0
C      1  0.5287660000000  0.4421010000000  0.4939160000000 1.0
C      1  0.5287470000000  0.4670580000000  0.5451820000000 1.0
C      1  0.5295030000000  0.5247880000000  0.5543700000000 1.0
C      1  0.5277970000000  0.5602510000000  0.5042220000000 1.0
C      1  0.4724820000000  0.5329830000000  0.5471420000000 1.0
C      1  0.4711000000000  0.4769580000000  0.5540690000000 1.0
C      1  0.4732610000000  0.4447360000000  0.5073250000000 1.0
C      1  0.4716220000000  0.4652100000000  0.4517340000000 1.0
C      1  0.4717300000000  0.5266470000000  0.4462880000000 1.0
C      1  0.4719110000000  0.5604310000000  0.4986220000000 1.0
C      1  0.4827580000000  0.5676250000000  0.4759610000000 1.0
C      1  0.4832180000000  0.5095690000000  0.4301090000000 1.0
C      1  0.4837220000000  0.4430560000000  0.4584450000000 1.0
C      1  0.4843600000000  0.4330070000000  0.5270280000000 1.0
C      1  0.4771850000000  0.4959280000000  0.5704990000000 1.0
C      1  0.4832900000000  0.5555340000000  0.5516710000000 1.0
C      1  0.5166640000000  0.5651270000000  0.5274150000000 1.0
C      1  0.5177550000000  0.5062650000000  0.5687910000000 1.0
C      1  0.5193560000000  0.4436120000000  0.5462590000000 1.0
C      1  0.5165290000000  0.4358780000000  0.4717100000000 1.0
C      1  0.5172580000000  0.4853450000000  0.4265330000000 1.0
C      1  0.5162180000000  0.5552910000000  0.4546330000000 1.0
C      1  0.5516960000000  0.4744120000000  0.4916260000000 1.0
C      1  0.5519580000000  0.4807300000000  0.5194070000000 1.0
C      1  0.5512590000000  0.5079670000000  0.5265020000000 1.0
C      1  0.5516100000000  0.5284500000000  0.5068410000000 1.0
C      1  0.5510610000000  0.5213870000000  0.4799140000000 1.0
C      1  0.5518190000000  0.4941270000000  0.4719770000000 1.0
C      1  0.4489270000000  0.4729420000000  0.5076290000000 1.0
C      1  0.4493690000000  0.4803820000000  0.4804770000000 1.0
C      1  0.4484810000000  0.5076660000000  0.4725500000000 1.0
C      1  0.4488660000000  0.5274900000000  0.4921250000000 1.0
C      1  0.4484110000000  0.5206910000000  0.5197230000000 1.0
C      1  0.4490190000000  0.4938800000000  0.5269510000000 1.0
C      1  0.4477990000000  0.5297120000000  0.4772920000000 1.0
C      1  0.4479570000000  0.4953740000000  0.4638670000000 1.0
C      1  0.4484130000000  0.4665740000000  0.4860480000000 1.0
C      1  0.4483680000000  0.4719080000000  0.5224070000000 1.0
C      1  0.4480990000000  0.5054740000000  0.5363490000000 1.0
C      1  0.4475910000000  0.5342760000000  0.5136230000000 1.0
C      1  0.5522650000000  0.5298590000000  0.5218180000000 1.0
C      1  0.5524980000000  0.4963140000000  0.5356990000000 1.0
C      1  0.5526010000000  0.4673780000000  0.5129320000000 1.0
C      1  0.5526230000000  0.4722520000000  0.4768810000000 1.0
C      1  0.5523720000000  0.5062090000000  0.4632500000000 1.0
C      1  0.5519620000000  0.5353670000000  0.4853880000000 1.0
C      1  0.4943190000000  0.4808800000000  0.4685330000000 1.0
C      1  0.4944010000000  0.4644820000000  0.4953860000000 1.0
C      1  0.4942840000000  0.4838590000000  0.5318090000000 1.0
C      1  0.4940630000000  0.5141850000000  0.5338680000000 1.0
C      1  0.4938740000000  0.5376850000000  0.5015760000000 1.0
C      1  0.4935250000000  0.5193340000000  0.4680810000000 1.0
C      1  0.5065340000000  0.4866240000000  0.5334150000000 1.0
C      1  0.5065370000000  0.4646580000000  0.4989310000000 1.0
C      1  0.5064620000000  0.4779940000000  0.4710110000000 1.0
C      1  0.5059930000000  0.5175220000000  0.4666430000000 1.0
C      1  0.5063230000000  0.5375400000000  0.4991830000000 1.0
C      1  0.5061730000000  0.5178910000000  0.5325540000000 1.0
C      1  0.5212410000000  0.5210950000000  0.4260060000000 1.0
C      1  0.5209420000000  0.4185790000000  0.4387630000000 1.0
C      1  0.5216600000000  0.4271730000000  0.5142760000000 1.0
C      1  0.4979480000000  0.4755500000000  0.5823560000000 1.0
C      1  0.5224690000000  0.5495700000000  0.5594460000000 1.0
C      1  0.5210530000000  0.5758490000000  0.4841180000000 1.0
C      1  0.4867530000000  0.5260170000000  0.5928310000000 1.0
C      1  0.4818180000000  0.4531630000000  0.5561780000000 1.0
C      1  0.4796390000000  0.4059230000000  0.4611640000000 1.0
C      1  0.4788680000000  0.4736570000000  0.4279090000000 1.0
C      1  0.4779200000000  0.5520620000000  0.4434410000000 1.0
C      1  0.4787020000000  0.5736460000000  0.5203530000000 1.0
END
