TITL C-45663-7166-60 93.3929738000223 1000000 -1635.83888320011 0 0 240 (S12) n - 1
REM
REM in /home/chem/mssmkc/work/GAP20/Larger-Clusters/Only-C240/New
REM
REM
REM
REM
REM
REM ./C.cell (28c9a5b7c779176d5635a9b681e7a0e1)
REM
REM compiler GCC version 8.3.0
REM options -cpp -mtune=generic -march=x86-64 -g -O0
REM seed 978133819 -916755907 -1262376022 913568149 1034213066 -314711200 1235104923 -2122298470 330022448 -512833686 -1539035300 -937192762 1851821641 -620364609 699249252 1130078837 150933239 -171548839 -2038246307 -1061950824 154171209 -315201766 1530396864 -1021740534 1505707630 -1682418939 -1406943549 -1009975151 2098003405 -2082556260 1185602673 1285029510 -1908664445
REM
CELL 1.54180  100.00000  100.00000  100.00000   90.00000   90.00000   90.00000
LATT -1
SFAC C  
C      1  0.5083670000000  0.4327320000000  0.5049860000000 1.0
C      1  0.4916160000000  0.4392530000000  0.4706840000000 1.0
C      1  0.5083740000000  0.4620470000000  0.4442390000000 1.0
C      1  0.4916270000000  0.4950150000000  0.4327330000000 1.0
C      1  0.5083840000000  0.5293140000000  0.4392530000000 1.0
C      1  0.4916340000000  0.5557630000000  0.4620480000000 1.0
C      1  0.5083870000000  0.5672660000000  0.4950150000000 1.0
C      1  0.4916300000000  0.5607490000000  0.5293150000000 1.0
C      1  0.5083790000000  0.5379500000000  0.5557620000000 1.0
C      1  0.4916200000000  0.5049870000000  0.5672660000000 1.0
C      1  0.5083690000000  0.4706830000000  0.5607480000000 1.0
C      1  0.4916130000000  0.4442390000000  0.5379510000000 1.0
C      1  0.5351020000000  0.4908680000000  0.4897640000000 1.0
C      1  0.4648980000000  0.4972200000000  0.4865690000000 1.0
C      1  0.5351040000000  0.5042970000000  0.4869790000000 1.0
C      1  0.4648990000000  0.5102430000000  0.4908710000000 1.0
C      1  0.5351050000000  0.5134240000000  0.4972170000000 1.0
C      1  0.4648990000000  0.5130280000000  0.5043010000000 1.0
C      1  0.5351040000000  0.5091210000000  0.5102390000000 1.0
C      1  0.4648970000000  0.5027900000000  0.5134270000000 1.0
C      1  0.5351010000000  0.4956920000000  0.5130250000000 1.0
C      1  0.4648950000000  0.4897670000000  0.5091250000000 1.0
C      1  0.5351010000000  0.4865650000000  0.5027870000000 1.0
C      1  0.4648960000000  0.4869820000000  0.4956950000000 1.0
C      1  0.4949900000000  0.4819870000000  0.4353530000000 1.0
C      1  0.5050180000000  0.5167220000000  0.4350080000000 1.0
C      1  0.4949980000000  0.5469800000000  0.4520760000000 1.0
C      1  0.5050220000000  0.5646460000000  0.4819870000000 1.0
C      1  0.4949970000000  0.5649930000000  0.5167230000000 1.0
C      1  0.5050160000000  0.5479230000000  0.5469790000000 1.0
C      1  0.4949870000000  0.5180140000000  0.5646470000000 1.0
C      1  0.5050050000000  0.4832760000000  0.5649930000000 1.0
C      1  0.4949790000000  0.4530220000000  0.5479230000000 1.0
C      1  0.5050010000000  0.4353520000000  0.5180140000000 1.0
C      1  0.4949800000000  0.4350080000000  0.4832770000000 1.0
C      1  0.5050070000000  0.4520760000000  0.4530210000000 1.0
C      1  0.4721630000000  0.5388200000000  0.4653040000000 1.0
C      1  0.5278530000000  0.5509590000000  0.4893630000000 1.0
C      1  0.4721620000000  0.5494580000000  0.5162670000000 1.0
C      1  0.5278480000000  0.5346900000000  0.5388170000000 1.0
C      1  0.4721540000000  0.5106420000000  0.5509610000000 1.0
C      1  0.5278390000000  0.4837270000000  0.5494560000000 1.0
C      1  0.4721480000000  0.4611880000000  0.5346930000000 1.0
C      1  0.5278370000000  0.4490330000000  0.5106400000000 1.0
C      1  0.4721490000000  0.4505500000000  0.4837300000000 1.0
C      1  0.5278420000000  0.4653010000000  0.4611860000000 1.0
C      1  0.4721570000000  0.4893660000000  0.4490360000000 1.0
C      1  0.5278500000000  0.5162640000000  0.4505470000000 1.0
C      1  0.4106450000000  0.5019610000000  0.4858370000000 1.0
C      1  0.5893580000000  0.5087530000000  0.4887180000000 1.0
C      1  0.4106460000000  0.5132480000000  0.4946020000000 1.0
C      1  0.5893580000000  0.5141450000000  0.5019530000000 1.0
C      1  0.4106450000000  0.5113010000000  0.5087600000000 1.0
C      1  0.5893560000000  0.5053800000000  0.5132400000000 1.0
C      1  0.4106430000000  0.4980660000000  0.5141530000000 1.0
C      1  0.5893540000000  0.4912210000000  0.5112930000000 1.0
C      1  0.4106420000000  0.4867780000000  0.5053870000000 1.0
C      1  0.5893540000000  0.4858290000000  0.4980580000000 1.0
C      1  0.4106430000000  0.4887260000000  0.4912290000000 1.0
C      1  0.5893560000000  0.4945950000000  0.4867700000000 1.0
C      1  0.5783170000000  0.5093000000000  0.5227890000000 1.0
C      1  0.4216820000000  0.4966830000000  0.5243830000000 1.0
C      1  0.5783130000000  0.4849120000000  0.5194610000000 1.0
C      1  0.4216800000000  0.4772270000000  0.5093070000000 1.0
C      1  0.5783130000000  0.4756010000000  0.4966760000000 1.0
C      1  0.4216820000000  0.4805560000000  0.4849190000000 1.0
C      1  0.5783160000000  0.4906770000000  0.4772200000000 1.0
C      1  0.4216860000000  0.5033400000000  0.4756070000000 1.0
C      1  0.5783200000000  0.5150650000000  0.4805480000000 1.0
C      1  0.4216870000000  0.5227970000000  0.4906840000000 1.0
C      1  0.5783200000000  0.5243770000000  0.5033330000000 1.0
C      1  0.4216860000000  0.5194680000000  0.5150720000000 1.0
C      1  0.5292620000000  0.4787160000000  0.4294020000000 1.0
C      1  0.4707460000000  0.5168750000000  0.4282170000000 1.0
C      1  0.5292710000000  0.5504970000000  0.4462730000000 1.0
C      1  0.4707510000000  0.5706040000000  0.4787190000000 1.0
C      1  0.5292700000000  0.5717760000000  0.5168730000000 1.0
C      1  0.4707440000000  0.5537320000000  0.5505000000000 1.0
C      1  0.5292600000000  0.5212750000000  0.5706010000000 1.0
C      1  0.4707330000000  0.4831330000000  0.5717790000000 1.0
C      1  0.5292500000000  0.4494940000000  0.5537300000000 1.0
C      1  0.4707280000000  0.4294050000000  0.5212780000000 1.0
C      1  0.5292510000000  0.4282150000000  0.4831310000000 1.0
C      1  0.4707340000000  0.4462760000000  0.4494970000000 1.0
C      1  0.4752590000000  0.4765740000000  0.4922720000000 1.0
C      1  0.5247370000000  0.4835690000000  0.4815950000000 1.0
C      1  0.4752620000000  0.4949800000000  0.4758450000000 1.0
C      1  0.5247400000000  0.5077220000000  0.4765720000000 1.0
C      1  0.4752650000000  0.5184090000000  0.4835710000000 1.0
C      1  0.5247420000000  0.5241500000000  0.4949780000000 1.0
C      1  0.4752650000000  0.5234330000000  0.5077250000000 1.0
C      1  0.5247400000000  0.5164240000000  0.5184070000000 1.0
C      1  0.4752610000000  0.5050270000000  0.5241520000000 1.0
C      1  0.5247360000000  0.4922700000000  0.5234310000000 1.0
C      1  0.4752580000000  0.4815980000000  0.5164260000000 1.0
C      1  0.5247340000000  0.4758430000000  0.5050250000000 1.0
C      1  0.4618770000000  0.4503420000000  0.4583250000000 1.0
C      1  0.5381180000000  0.4778210000000  0.4390810000000 1.0
C      1  0.4618880000000  0.5112640000000  0.4361520000000 1.0
C      1  0.5381270000000  0.5416670000000  0.4503390000000 1.0
C      1  0.4618930000000  0.5609270000000  0.4778250000000 1.0
C      1  0.5381260000000  0.5638400000000  0.5112600000000 1.0
C      1  0.4618870000000  0.5496690000000  0.5416710000000 1.0
C      1  0.5381170000000  0.5221670000000  0.5609230000000 1.0
C      1  0.4618770000000  0.4887470000000  0.5638440000000 1.0
C      1  0.5381090000000  0.4583220000000  0.5496650000000 1.0
C      1  0.4618720000000  0.4390840000000  0.5221710000000 1.0
C      1  0.5381090000000  0.4361480000000  0.4887440000000 1.0
C      1  0.4829860000000  0.4838050000000  0.4817760000000 1.0
C      1  0.5170130000000  0.4950820000000  0.4761200000000 1.0
C      1  0.4829900000000  0.5076860000000  0.4768600000000 1.0
C      1  0.5170160000000  0.5182210000000  0.4838040000000 1.0
C      1  0.4829920000000  0.5238830000000  0.4950840000000 1.0
C      1  0.5170150000000  0.5231360000000  0.5076840000000 1.0
C      1  0.4829890000000  0.5162000000000  0.5182220000000 1.0
C      1  0.5170120000000  0.5049130000000  0.5238810000000 1.0
C      1  0.4829850000000  0.4923190000000  0.5231380000000 1.0
C      1  0.5170090000000  0.4817740000000  0.5161980000000 1.0
C      1  0.4829840000000  0.4761220000000  0.5049150000000 1.0
C      1  0.5170090000000  0.4768590000000  0.4923180000000 1.0
C      1  0.5303760000000  0.4623560000000  0.5081650000000 1.0
C      1  0.4696130000000  0.4633250000000  0.4882480000000 1.0
C      1  0.5303800000000  0.4741050000000  0.4714860000000 1.0
C      1  0.4696190000000  0.4918410000000  0.4623580000000 1.0
C      1  0.5303860000000  0.5117450000000  0.4633230000000 1.0
C      1  0.4696240000000  0.5285200000000  0.4741080000000 1.0
C      1  0.5303880000000  0.5376350000000  0.4918380000000 1.0
C      1  0.4696230000000  0.5366830000000  0.5117480000000 1.0
C      1  0.5303840000000  0.5258850000000  0.5285170000000 1.0
C      1  0.4696170000000  0.5081680000000  0.5376380000000 1.0
C      1  0.5303780000000  0.4882450000000  0.5366810000000 1.0
C      1  0.4696120000000  0.4714890000000  0.5258880000000 1.0
C      1  0.4832950000000  0.4294650000000  0.5230810000000 1.0
C      1  0.5166840000000  0.4273690000000  0.4847210000000 1.0
C      1  0.4833010000000  0.4447440000000  0.4504520000000 1.0
C      1  0.5166940000000  0.4769160000000  0.4294630000000 1.0
C      1  0.4833130000000  0.5152820000000  0.4273700000000 1.0
C      1  0.5167040000000  0.5495440000000  0.4447430000000 1.0
C      1  0.4833180000000  0.5705400000000  0.4769170000000 1.0
C      1  0.5167030000000  0.5726260000000  0.5152810000000 1.0
C      1  0.4833120000000  0.5552600000000  0.5495460000000 1.0
C      1  0.5166930000000  0.5230790000000  0.5705390000000 1.0
C      1  0.4833000000000  0.4847230000000  0.5726270000000 1.0
C      1  0.5166830000000  0.4504510000000  0.5552590000000 1.0
C      1  0.5053670000000  0.5277450000000  0.5654260000000 1.0
C      1  0.4946280000000  0.4913170000000  0.5705330000000 1.0
C      1  0.5053570000000  0.4572120000000  0.5567420000000 1.0
C      1  0.4946220000000  0.4345750000000  0.5277460000000 1.0
C      1  0.5053570000000  0.4294660000000  0.4913160000000 1.0
C      1  0.4946280000000  0.4432590000000  0.4572130000000 1.0
C      1  0.5053660000000  0.4722530000000  0.4345750000000 1.0
C      1  0.4946390000000  0.5086840000000  0.4294660000000 1.0
C      1  0.5053760000000  0.5427860000000  0.4432590000000 1.0
C      1  0.4946450000000  0.5654260000000  0.4722540000000 1.0
C      1  0.5053760000000  0.5705320000000  0.5086840000000 1.0
C      1  0.4946390000000  0.5567420000000  0.5427870000000 1.0
C      1  0.5656870000000  0.5141760000000  0.5025150000000 1.0
C      1  0.4343160000000  0.5110400000000  0.5092630000000 1.0
C      1  0.5656850000000  0.5049090000000  0.5135450000000 1.0
C      1  0.4343140000000  0.4974990000000  0.5141820000000 1.0
C      1  0.5656830000000  0.4907230000000  0.5110340000000 1.0
C      1  0.4343130000000  0.4864690000000  0.5049140000000 1.0
C      1  0.5656830000000  0.4858050000000  0.4974930000000 1.0
C      1  0.4343140000000  0.4889800000000  0.4907290000000 1.0
C      1  0.5656850000000  0.4950720000000  0.4864630000000 1.0
C      1  0.4343160000000  0.5025210000000  0.4858100000000 1.0
C      1  0.5656870000000  0.5092580000000  0.4889740000000 1.0
C      1  0.4343170000000  0.5135510000000  0.4950780000000 1.0
C      1  0.4965380000000  0.5235900000000  0.4951970000000 1.0
C      1  0.5034690000000  0.5228310000000  0.5076350000000 1.0
C      1  0.4965360000000  0.5159550000000  0.5180280000000 1.0
C      1  0.5034650000000  0.5048030000000  0.5235900000000 1.0
C      1  0.4965320000000  0.4923650000000  0.5228310000000 1.0
C      1  0.5034620000000  0.4819720000000  0.5159550000000 1.0
C      1  0.4965310000000  0.4764100000000  0.5048030000000 1.0
C      1  0.5034630000000  0.4771680000000  0.4923650000000 1.0
C      1  0.4965330000000  0.4840460000000  0.4819720000000 1.0
C      1  0.5034660000000  0.4951960000000  0.4764100000000 1.0
C      1  0.4965370000000  0.5076360000000  0.4771690000000 1.0
C      1  0.5034690000000  0.5180270000000  0.4840450000000 1.0
C      1  0.5173400000000  0.5189940000000  0.4416380000000 1.0
C      1  0.4826760000000  0.5456350000000  0.4589540000000 1.0
C      1  0.5173430000000  0.5600390000000  0.4872710000000 1.0
C      1  0.4826740000000  0.5583650000000  0.5189950000000 1.0
C      1  0.5173370000000  0.5410430000000  0.5456340000000 1.0
C      1  0.4826650000000  0.5127320000000  0.5600410000000 1.0
C      1  0.5173270000000  0.4810010000000  0.5583630000000 1.0
C      1  0.4826580000000  0.4543700000000  0.5410450000000 1.0
C      1  0.5173240000000  0.4399560000000  0.5127310000000 1.0
C      1  0.4826590000000  0.4416400000000  0.4810030000000 1.0
C      1  0.5173300000000  0.4589520000000  0.4543680000000 1.0
C      1  0.4826680000000  0.4872720000000  0.4399580000000 1.0
C      1  0.5415320000000  0.5458410000000  0.4899950000000 1.0
C      1  0.4584810000000  0.5447150000000  0.5142540000000 1.0
C      1  0.5415270000000  0.5315850000000  0.5347040000000 1.0
C      1  0.4584740000000  0.5100140000000  0.5458450000000 1.0
C      1  0.5415200000000  0.4857370000000  0.5447110000000 1.0
C      1  0.4584690000000  0.4653050000000  0.5315880000000 1.0
C      1  0.5415170000000  0.4541460000000  0.5100100000000 1.0
C      1  0.4584700000000  0.4552970000000  0.4857410000000 1.0
C      1  0.5415220000000  0.4684030000000  0.4653010000000 1.0
C      1  0.4584770000000  0.4899980000000  0.4541500000000 1.0
C      1  0.5415290000000  0.5142510000000  0.4552930000000 1.0
C      1  0.4584820000000  0.5347070000000  0.4684070000000 1.0
C      1  0.4237820000000  0.5000380000000  0.4630030000000 1.0
C      1  0.5762250000000  0.5185080000000  0.4679810000000 1.0
C      1  0.4237850000000  0.5320610000000  0.4815220000000 1.0
C      1  0.5762260000000  0.5369810000000  0.5000310000000 1.0
C      1  0.4237830000000  0.5320350000000  0.5185140000000 1.0
C      1  0.5762210000000  0.5184630000000  0.5320540000000 1.0
C      1  0.4237770000000  0.4999850000000  0.5369880000000 1.0
C      1  0.5762160000000  0.4814700000000  0.5320280000000 1.0
C      1  0.4237740000000  0.4679620000000  0.5184690000000 1.0
C      1  0.5762150000000  0.4629970000000  0.4999790000000 1.0
C      1  0.4237760000000  0.4679880000000  0.4814770000000 1.0
C      1  0.5762190000000  0.4815150000000  0.4679550000000 1.0
C      1  0.4450990000000  0.4639770000000  0.5311440000000 1.0
C      1  0.5548870000000  0.4532140000000  0.5089620000000 1.0
C      1  0.4451000000000  0.4550180000000  0.4843660000000 1.0
C      1  0.5548920000000  0.4688440000000  0.4639720000000 1.0
C      1  0.4451070000000  0.4910490000000  0.4532190000000 1.0
C      1  0.5548990000000  0.5156220000000  0.4550130000000 1.0
C      1  0.4451130000000  0.5360400000000  0.4688490000000 1.0
C      1  0.5549010000000  0.5467700000000  0.4910440000000 1.0
C      1  0.4451120000000  0.5449990000000  0.5156270000000 1.0
C      1  0.5548970000000  0.5311400000000  0.5360350000000 1.0
C      1  0.4451040000000  0.5089670000000  0.5467750000000 1.0
C      1  0.5548890000000  0.4843620000000  0.5449940000000 1.0
C      1  0.4333510000000  0.4948600000000  0.4556110000000 1.0
C      1  0.5666550000000  0.5177230000000  0.4589910000000 1.0
C      1  0.4333560000000  0.5358730000000  0.4733440000000 1.0
C      1  0.5666570000000  0.5443750000000  0.4948540000000 1.0
C      1  0.4333550000000  0.5410230000000  0.5177280000000 1.0
C      1  0.5666520000000  0.5266430000000  0.5358670000000 1.0
C      1  0.4333480000000  0.5051600000000  0.5443810000000 1.0
C      1  0.5666450000000  0.4822580000000  0.5410170000000 1.0
C      1  0.4333430000000  0.4641470000000  0.5266490000000 1.0
C      1  0.5666440000000  0.4556060000000  0.5051540000000 1.0
C      1  0.4333450000000  0.4589970000000  0.4822640000000 1.0
C      1  0.5666480000000  0.4733380000000  0.4641410000000 1.0
END
