TITL C-45664-8239-22 3.42612105834195 1000000 -1670.47260796003 0 0 240 (C3h) n - 1
REM
REM in /home/chem/mssmkc/work/GAP20/Larger-Clusters/Only-C240/New
REM
REM
REM
REM
REM
REM ./C.cell (28c9a5b7c779176d5635a9b681e7a0e1)
REM
REM compiler GCC version 8.3.0
REM options -cpp -mtune=generic -march=x86-64 -g -O0
REM seed -802401952 -1871393810 -921922049 1931846528 751112174 223392062 -603355470 -941855214 -487882099 22416971 -630351398 1203642020 -955918791 -1855005304 -1274707344 1710059457 812205504 -832732522 1600209362 -172087843 -1822187590 -1372065508 -1956964318 1061946919 -995156421 -443739643 596965525 1614160597 -965125487 -1181830852 -1721060757 -1536695667 1981786012
REM
CELL 1.54180  100.00000  100.00000  100.00000   90.00000   90.00000   90.00000
LATT -1
SFAC C  
C      1  0.4879470000000  0.4648130000000  0.4372930000000 1.0
C      1  0.5365440000000  0.5071100000000  0.4372070000000 1.0
C      1  0.4756030000000  0.5280620000000  0.4371780000000 1.0
C      1  0.4878820000000  0.4648280000000  0.5628260000000 1.0
C      1  0.5364900000000  0.5071420000000  0.5627490000000 1.0
C      1  0.4755510000000  0.5280710000000  0.5627530000000 1.0
C      1  0.4875260000000  0.5349980000000  0.4371840000000 1.0
C      1  0.5366030000000  0.4933170000000  0.4372230000000 1.0
C      1  0.4759800000000  0.4716680000000  0.4373160000000 1.0
C      1  0.4874670000000  0.5350150000000  0.5627290000000 1.0
C      1  0.5365340000000  0.4933500000000  0.5627320000000 1.0
C      1  0.4759110000000  0.4716790000000  0.5628190000000 1.0
C      1  0.4198140000000  0.4708920000000  0.4753690000000 1.0
C      1  0.5651700000000  0.4451910000000  0.4753380000000 1.0
C      1  0.5148740000000  0.5837700000000  0.4753100000000 1.0
C      1  0.4199900000000  0.4709830000000  0.5246930000000 1.0
C      1  0.5652310000000  0.4451530000000  0.5246530000000 1.0
C      1  0.5148800000000  0.5839390000000  0.5246260000000 1.0
C      1  0.4192540000000  0.5294330000000  0.4752650000000 1.0
C      1  0.5659250000000  0.5551970000000  0.4751960000000 1.0
C      1  0.5148640000000  0.4152990000000  0.4751940000000 1.0
C      1  0.4192010000000  0.5294850000000  0.5248280000000 1.0
C      1  0.5658850000000  0.5552210000000  0.5247610000000 1.0
C      1  0.5148540000000  0.4153560000000  0.5247540000000 1.0
C      1  0.4581200000000  0.4416730000000  0.5073790000000 1.0
C      1  0.5714640000000  0.4928980000000  0.5074950000000 1.0
C      1  0.4703970000000  0.5654540000000  0.5075410000000 1.0
C      1  0.4581010000000  0.4416520000000  0.4924440000000 1.0
C      1  0.5714660000000  0.4929010000000  0.4925610000000 1.0
C      1  0.4704100000000  0.5654240000000  0.4926070000000 1.0
C      1  0.4576960000000  0.5582040000000  0.5075540000000 1.0
C      1  0.5715370000000  0.5075230000000  0.5075040000000 1.0
C      1  0.4707500000000  0.4342990000000  0.5073840000000 1.0
C      1  0.4577060000000  0.5581780000000  0.4926020000000 1.0
C      1  0.5715400000000  0.5075260000000  0.4925520000000 1.0
C      1  0.4707330000000  0.4342800000000  0.4924310000000 1.0
C      1  0.5127620000000  0.5766290000000  0.4633570000000 1.0
C      1  0.4269920000000  0.4726290000000  0.4633810000000 1.0
C      1  0.5600520000000  0.4505810000000  0.4633760000000 1.0
C      1  0.5127890000000  0.5768460000000  0.5366090000000 1.0
C      1  0.4272350000000  0.4727220000000  0.5366440000000 1.0
C      1  0.5601270000000  0.4505180000000  0.5366290000000 1.0
C      1  0.5127830000000  0.4221620000000  0.4630680000000 1.0
C      1  0.4262720000000  0.5277970000000  0.4631610000000 1.0
C      1  0.5610330000000  0.5499460000000  0.4630730000000 1.0
C      1  0.5127560000000  0.4222440000000  0.5368620000000 1.0
C      1  0.4261860000000  0.5278670000000  0.5369550000000 1.0
C      1  0.5609680000000  0.5499810000000  0.5368780000000 1.0
C      1  0.5239840000000  0.4727770000000  0.4655590000000 1.0
C      1  0.5116610000000  0.5343320000000  0.4654960000000 1.0
C      1  0.4645660000000  0.4930050000000  0.4655920000000 1.0
C      1  0.5238010000000  0.4727890000000  0.5344470000000 1.0
C      1  0.5115970000000  0.5342930000000  0.5344130000000 1.0
C      1  0.4644190000000  0.4928880000000  0.5344920000000 1.0
C      1  0.5232840000000  0.5281180000000  0.4652340000000 1.0
C      1  0.5127980000000  0.4658070000000  0.4652920000000 1.0
C      1  0.4641470000000  0.5061710000000  0.4652940000000 1.0
C      1  0.5232190000000  0.5280860000000  0.5346970000000 1.0
C      1  0.5126070000000  0.4658400000000  0.5347350000000 1.0
C      1  0.4639780000000  0.5060600000000  0.5347500000000 1.0
C      1  0.5200330000000  0.5214170000000  0.4434210000000 1.0
C      1  0.4715050000000  0.5066260000000  0.4434610000000 1.0
C      1  0.5085990000000  0.4719530000000  0.4434840000000 1.0
C      1  0.5199750000000  0.5214330000000  0.5565190000000 1.0
C      1  0.4714090000000  0.5066150000000  0.5565600000000 1.0
C      1  0.5085040000000  0.4719930000000  0.5565610000000 1.0
C      1  0.5201040000000  0.4790970000000  0.4436110000000 1.0
C      1  0.4719110000000  0.4930890000000  0.4436270000000 1.0
C      1  0.5080980000000  0.5278180000000  0.4435550000000 1.0
C      1  0.5200210000000  0.4791170000000  0.5564050000000 1.0
C      1  0.4718410000000  0.4930790000000  0.5564340000000 1.0
C      1  0.5080410000000  0.5278340000000  0.5563750000000 1.0
C      1  0.4998830000000  0.5144240000000  0.4257040000000 1.0
C      1  0.4875860000000  0.4926240000000  0.4257480000000 1.0
C      1  0.5126140000000  0.4928750000000  0.4257340000000 1.0
C      1  0.4998350000000  0.5144780000000  0.5742580000000 1.0
C      1  0.4875400000000  0.4926760000000  0.5742910000000 1.0
C      1  0.5125680000000  0.4929290000000  0.5742720000000 1.0
C      1  0.5000660000000  0.4854950000000  0.4257470000000 1.0
C      1  0.4874670000000  0.5071820000000  0.4257090000000 1.0
C      1  0.5125480000000  0.5072480000000  0.4257070000000 1.0
C      1  0.5000210000000  0.4855460000000  0.5742990000000 1.0
C      1  0.4874210000000  0.5072330000000  0.5742780000000 1.0
C      1  0.5125020000000  0.5073020000000  0.5742670000000 1.0
C      1  0.5662740000000  0.4591680000000  0.4727070000000 1.0
C      1  0.5022230000000  0.5777280000000  0.4727070000000 1.0
C      1  0.4313780000000  0.4629490000000  0.4726660000000 1.0
C      1  0.5663220000000  0.4591380000000  0.5273210000000 1.0
C      1  0.5022180000000  0.5779080000000  0.5273150000000 1.0
C      1  0.4315460000000  0.4630450000000  0.5272920000000 1.0
C      1  0.5669740000000  0.5412090000000  0.4723980000000 1.0
C      1  0.5022220000000  0.4213730000000  0.4723620000000 1.0
C      1  0.4308460000000  0.5373340000000  0.4724700000000 1.0
C      1  0.5669410000000  0.5412350000000  0.5275850000000 1.0
C      1  0.5022170000000  0.4214500000000  0.5275400000000 1.0
C      1  0.4307830000000  0.5373980000000  0.5276510000000 1.0
C      1  0.4645560000000  0.5272860000000  0.4477540000000 1.0
C      1  0.4941670000000  0.4556310000000  0.4478360000000 1.0
C      1  0.5413920000000  0.5170920000000  0.4477530000000 1.0
C      1  0.4644810000000  0.5272730000000  0.5522140000000 1.0
C      1  0.4940860000000  0.4556460000000  0.5522590000000 1.0
C      1  0.5413320000000  0.5171080000000  0.5521900000000 1.0
C      1  0.4651270000000  0.4724180000000  0.4480180000000 1.0
C      1  0.4936000000000  0.5440590000000  0.4478460000000 1.0
C      1  0.5414190000000  0.4835410000000  0.4478940000000 1.0
C      1  0.4650280000000  0.4723990000000  0.5521550000000 1.0
C      1  0.4935300000000  0.5440560000000  0.5520380000000 1.0
C      1  0.5413220000000  0.4835690000000  0.5520420000000 1.0
C      1  0.5251210000000  0.5703710000000  0.5397040000000 1.0
C      1  0.4265490000000  0.4866270000000  0.5397790000000 1.0
C      1  0.5483540000000  0.4430690000000  0.5397240000000 1.0
C      1  0.5251490000000  0.5702730000000  0.4602240000000 1.0
C      1  0.4264860000000  0.4865560000000  0.4603060000000 1.0
C      1  0.5483310000000  0.4430670000000  0.4602520000000 1.0
C      1  0.5249640000000  0.4290020000000  0.5399140000000 1.0
C      1  0.4259530000000  0.5139170000000  0.5400110000000 1.0
C      1  0.5490020000000  0.5571620000000  0.5399130000000 1.0
C      1  0.5249830000000  0.4289320000000  0.4600210000000 1.0
C      1  0.4260340000000  0.5138430000000  0.4601240000000 1.0
C      1  0.5490780000000  0.5571330000000  0.4600050000000 1.0
C      1  0.4114880000000  0.4844690000000  0.4938570000000 1.0
C      1  0.5576800000000  0.4311170000000  0.4937940000000 1.0
C      1  0.5308080000000  0.5843720000000  0.4937610000000 1.0
C      1  0.4115060000000  0.4844830000000  0.5062430000000 1.0
C      1  0.5576870000000  0.4311150000000  0.5061810000000 1.0
C      1  0.5308050000000  0.5843950000000  0.5061470000000 1.0
C      1  0.4113100000000  0.5157580000000  0.4938540000000 1.0
C      1  0.5580070000000  0.5689100000000  0.4937730000000 1.0
C      1  0.5306810000000  0.4153040000000  0.4937880000000 1.0
C      1  0.4113020000000  0.5157710000000  0.5062410000000 1.0
C      1  0.5579970000000  0.5689170000000  0.5061610000000 1.0
C      1  0.5306810000000  0.4153150000000  0.5061750000000 1.0
C      1  0.4770780000000  0.4858960000000  0.4329770000000 1.0
C      1  0.5237130000000  0.4871470000000  0.4329350000000 1.0
C      1  0.4993050000000  0.5269080000000  0.4328930000000 1.0
C      1  0.4770210000000  0.4859280000000  0.5671030000000 1.0
C      1  0.5236550000000  0.4871900000000  0.5670560000000 1.0
C      1  0.4992500000000  0.5269460000000  0.5670410000000 1.0
C      1  0.4768240000000  0.5138460000000  0.4328540000000 1.0
C      1  0.5236330000000  0.5131520000000  0.4328500000000 1.0
C      1  0.4996370000000  0.4729580000000  0.4329140000000 1.0
C      1  0.4767690000000  0.5138730000000  0.5671250000000 1.0
C      1  0.5235810000000  0.5131930000000  0.5671070000000 1.0
C      1  0.4995790000000  0.4729950000000  0.5671580000000 1.0
C      1  0.4902620000000  0.4256550000000  0.4772790000000 1.0
C      1  0.5692340000000  0.5287290000000  0.4773640000000 1.0
C      1  0.4405130000000  0.5455420000000  0.4774320000000 1.0
C      1  0.4902820000000  0.4257240000000  0.5225660000000 1.0
C      1  0.5692180000000  0.5287430000000  0.5226580000000 1.0
C      1  0.4404670000000  0.5456090000000  0.5227190000000 1.0
C      1  0.4901890000000  0.5737100000000  0.4776330000000 1.0
C      1  0.5688010000000  0.4716140000000  0.4776040000000 1.0
C      1  0.4409380000000  0.4545540000000  0.4775080000000 1.0
C      1  0.4901640000000  0.5738460000000  0.5224690000000 1.0
C      1  0.5688240000000  0.4716000000000  0.5224490000000 1.0
C      1  0.4410460000000  0.4546400000000  0.5223570000000 1.0
C      1  0.5466150000000  0.5292540000000  0.5563110000000 1.0
C      1  0.4513270000000  0.5258140000000  0.5563710000000 1.0
C      1  0.5019910000000  0.4450120000000  0.5563630000000 1.0
C      1  0.5466950000000  0.5292200000000  0.4436060000000 1.0
C      1  0.4513910000000  0.5257340000000  0.4436690000000 1.0
C      1  0.5020000000000  0.4449640000000  0.4436770000000 1.0
C      1  0.5457420000000  0.4709610000000  0.5557270000000 1.0
C      1  0.4519130000000  0.4749480000000  0.5558580000000 1.0
C      1  0.5022610000000  0.5541740000000  0.5557070000000 1.0
C      1  0.5457670000000  0.4709050000000  0.4442090000000 1.0
C      1  0.4519920000000  0.4748670000000  0.4443430000000 1.0
C      1  0.5023580000000  0.5541480000000  0.4441400000000 1.0
C      1  0.4798800000000  0.5697500000000  0.5166180000000 1.0
C      1  0.4496940000000  0.4477650000000  0.5164690000000 1.0
C      1  0.5704240000000  0.4825430000000  0.5165780000000 1.0
C      1  0.4799050000000  0.5696650000000  0.4835180000000 1.0
C      1  0.4496350000000  0.4477100000000  0.4833660000000 1.0
C      1  0.5704190000000  0.4825520000000  0.4834760000000 1.0
C      1  0.4801470000000  0.4299400000000  0.5165360000000 1.0
C      1  0.4492030000000  0.5522710000000  0.5167050000000 1.0
C      1  0.5706280000000  0.5178440000000  0.5166520000000 1.0
C      1  0.4801200000000  0.4298920000000  0.4832840000000 1.0
C      1  0.4492330000000  0.5522170000000  0.4834530000000 1.0
C      1  0.5706360000000  0.5178430000000  0.4833970000000 1.0
C      1  0.5263060000000  0.4391070000000  0.4504090000000 1.0
C      1  0.5396160000000  0.5531940000000  0.4503800000000 1.0
C      1  0.4341960000000  0.5076050000000  0.4505290000000 1.0
C      1  0.5262880000000  0.4391780000000  0.5495220000000 1.0
C      1  0.5395220000000  0.5532200000000  0.5495150000000 1.0
C      1  0.4341030000000  0.5076920000000  0.5496290000000 1.0
C      1  0.5266720000000  0.5602060000000  0.4505350000000 1.0
C      1  0.5388520000000  0.4468100000000  0.4505760000000 1.0
C      1  0.4345500000000  0.4928880000000  0.4506950000000 1.0
C      1  0.5265890000000  0.5602530000000  0.5493460000000 1.0
C      1  0.5388500000000  0.4468550000000  0.5493600000000 1.0
C      1  0.4345080000000  0.4929760000000  0.5494680000000 1.0
C      1  0.5429050000000  0.5413340000000  0.5559740000000 1.0
C      1  0.4427100000000  0.5165710000000  0.5560690000000 1.0
C      1  0.5143080000000  0.4421860000000  0.5559930000000 1.0
C      1  0.5430030000000  0.5413050000000  0.4439300000000 1.0
C      1  0.4427900000000  0.5164750000000  0.4440550000000 1.0
C      1  0.5143140000000  0.4421260000000  0.4439700000000 1.0
C      1  0.5419620000000  0.4589150000000  0.5556240000000 1.0
C      1  0.4433930000000  0.4842630000000  0.5557620000000 1.0
C      1  0.5145840000000  0.5569190000000  0.5556030000000 1.0
C      1  0.5419610000000  0.4588690000000  0.4443020000000 1.0
C      1  0.4434420000000  0.4841580000000  0.4444470000000 1.0
C      1  0.5146850000000  0.5568690000000  0.4442370000000 1.0
C      1  0.5344530000000  0.4258730000000  0.4704290000000 1.0
C      1  0.5469800000000  0.5668710000000  0.4704070000000 1.0
C      1  0.4186110000000  0.5071810000000  0.4705110000000 1.0
C      1  0.5344470000000  0.4259150000000  0.5295260000000 1.0
C      1  0.5469320000000  0.5669020000000  0.5295100000000 1.0
C      1  0.4185740000000  0.5072360000000  0.5296050000000 1.0
C      1  0.5346880000000  0.5737190000000  0.4704590000000 1.0
C      1  0.5465350000000  0.4330860000000  0.4704870000000 1.0
C      1  0.4187700000000  0.4931100000000  0.4705530000000 1.0
C      1  0.5346580000000  0.5737820000000  0.5294580000000 1.0
C      1  0.5465460000000  0.4331010000000  0.5294820000000 1.0
C      1  0.4187920000000  0.4931670000000  0.5295470000000 1.0
C      1  0.4681190000000  0.4852200000000  0.5450890000000 1.0
C      1  0.5286420000000  0.4798220000000  0.5450270000000 1.0
C      1  0.5031030000000  0.5349520000000  0.5450090000000 1.0
C      1  0.4682250000000  0.4852830000000  0.4550160000000 1.0
C      1  0.5287680000000  0.4798110000000  0.4549550000000 1.0
C      1  0.5031630000000  0.5349690000000  0.4549050000000 1.0
C      1  0.4673920000000  0.5142330000000  0.5451480000000 1.0
C      1  0.5285850000000  0.5210660000000  0.5451080000000 1.0
C      1  0.5038670000000  0.4647110000000  0.5451620000000 1.0
C      1  0.4675310000000  0.5142940000000  0.4548580000000 1.0
C      1  0.5286460000000  0.5210810000000  0.4548270000000 1.0
C      1  0.5040060000000  0.4646740000000  0.4549000000000 1.0
C      1  0.5277900000000  0.4176660000000  0.4804070000000 1.0
C      1  0.5574120000000  0.5652160000000  0.4803940000000 1.0
C      1  0.4148210000000  0.5170610000000  0.4804770000000 1.0
C      1  0.5277890000000  0.4177000000000  0.5195510000000 1.0
C      1  0.5573800000000  0.5652340000000  0.5195410000000 1.0
C      1  0.4147910000000  0.5171030000000  0.5196220000000 1.0
C      1  0.5279020000000  0.5818200000000  0.4804310000000 1.0
C      1  0.5569430000000  0.4349040000000  0.4804620000000 1.0
C      1  0.4151030000000  0.4831870000000  0.4805150000000 1.0
C      1  0.5278890000000  0.5818990000000  0.5194870000000 1.0
C      1  0.5569680000000  0.4348970000000  0.5195180000000 1.0
C      1  0.4151680000000  0.4832420000000  0.5195730000000 1.0
END
