TITL C-45663-7166-24 -9.87808727846781 1000000 -1709.38568956491 0 0 240 (Td) n - 1
REM
REM in /home/chem/mssmkc/work/GAP20/Larger-Clusters/Only-C240/New
REM
REM
REM
REM
REM
REM ./C.cell (28c9a5b7c779176d5635a9b681e7a0e1)
REM
REM compiler GCC version 8.3.0
REM options -cpp -mtune=generic -march=x86-64 -g -O0
REM seed -266795392 -705333045 452919562 1327960349 -1629393644 -1157993819 14129000 -1696121963 2071403154 -554349777 -1859909605 -1220105927 -1384845260 -2065616310 -488133819 -1377533315 455444668 431178085 843973777 1513532096 -1737329795 -1215950402 -781057644 -1898733790 445491633 -1851956217 1686600889 1444105905 -1493151021 -811503604 -1131855658 -166104675 1896602399
REM
CELL 1.54180  100.00000  100.00000  100.00000   90.00000   90.00000   90.00000
LATT -1
SFAC C  
C      1  0.5362310000000  0.4727330000000  0.5010540000000 1.0
C      1  0.4727340000000  0.5010560000000  0.5362310000000 1.0
C      1  0.5010520000000  0.5362290000000  0.4727310000000 1.0
C      1  0.5362270000000  0.5272720000000  0.4989390000000 1.0
C      1  0.4637730000000  0.4727280000000  0.4989460000000 1.0
C      1  0.4637690000000  0.5272670000000  0.5010610000000 1.0
C      1  0.4727270000000  0.4989400000000  0.4637740000000 1.0
C      1  0.5272660000000  0.5010590000000  0.4637690000000 1.0
C      1  0.5272730000000  0.4989440000000  0.5362260000000 1.0
C      1  0.5010630000000  0.4637710000000  0.5272690000000 1.0
C      1  0.4989420000000  0.5362290000000  0.5272690000000 1.0
C      1  0.4989420000000  0.4637710000000  0.4727310000000 1.0
C      1  0.5362260000000  0.5010600000000  0.4727270000000 1.0
C      1  0.4727280000000  0.5362270000000  0.5010600000000 1.0
C      1  0.5010630000000  0.4727310000000  0.5362290000000 1.0
C      1  0.5362320000000  0.4989450000000  0.5272660000000 1.0
C      1  0.4637690000000  0.4989400000000  0.4727340000000 1.0
C      1  0.4637740000000  0.5010550000000  0.5272730000000 1.0
C      1  0.4727330000000  0.4637690000000  0.4989450000000 1.0
C      1  0.5272720000000  0.4637730000000  0.5010550000000 1.0
C      1  0.5272670000000  0.5362310000000  0.4989400000000 1.0
C      1  0.5010520000000  0.5272690000000  0.4637710000000 1.0
C      1  0.4989440000000  0.5272690000000  0.5362290000000 1.0
C      1  0.4989410000000  0.4727310000000  0.4637710000000 1.0
C      1  0.4517750000000  0.5373450000000  0.5028950000000 1.0
C      1  0.5373440000000  0.5028930000000  0.4517740000000 1.0
C      1  0.5028970000000  0.4517780000000  0.5373490000000 1.0
C      1  0.4517800000000  0.4626480000000  0.4971150000000 1.0
C      1  0.5482190000000  0.5373520000000  0.4971050000000 1.0
C      1  0.5482250000000  0.4626550000000  0.5028850000000 1.0
C      1  0.5373540000000  0.4971130000000  0.5482190000000 1.0
C      1  0.4626560000000  0.5028870000000  0.5482260000000 1.0
C      1  0.4626470000000  0.4971070000000  0.4517810000000 1.0
C      1  0.5028830000000  0.5482220000000  0.4626510000000 1.0
C      1  0.4971100000000  0.4517780000000  0.4626520000000 1.0
C      1  0.4971100000000  0.5482220000000  0.5373490000000 1.0
C      1  0.4517810000000  0.5028870000000  0.5373530000000 1.0
C      1  0.5373530000000  0.4517800000000  0.5028860000000 1.0
C      1  0.5028830000000  0.5373490000000  0.4517770000000 1.0
C      1  0.4517740000000  0.4971060000000  0.4626560000000 1.0
C      1  0.5482260000000  0.4971140000000  0.5373440000000 1.0
C      1  0.5482180000000  0.5028930000000  0.4626470000000 1.0
C      1  0.5373450000000  0.5482250000000  0.4971060000000 1.0
C      1  0.4626480000000  0.5482200000000  0.5028940000000 1.0
C      1  0.4626540000000  0.4517750000000  0.4971140000000 1.0
C      1  0.5028970000000  0.4626510000000  0.5482220000000 1.0
C      1  0.4971080000000  0.4626510000000  0.4517780000000 1.0
C      1  0.4971120000000  0.5373490000000  0.5482220000000 1.0
C      1  0.4907770000000  0.4673090000000  0.5553800000000 1.0
C      1  0.4673040000000  0.5553760000000  0.4907720000000 1.0
C      1  0.5553760000000  0.4907730000000  0.4673040000000 1.0
C      1  0.4907620000000  0.5326900000000  0.4446220000000 1.0
C      1  0.5092280000000  0.4673100000000  0.4446200000000 1.0
C      1  0.5092340000000  0.5326920000000  0.5553780000000 1.0
C      1  0.4673140000000  0.4446190000000  0.5092340000000 1.0
C      1  0.5326880000000  0.5553810000000  0.5092280000000 1.0
C      1  0.5326940000000  0.4446240000000  0.4907660000000 1.0
C      1  0.5553810000000  0.5092350000000  0.5326850000000 1.0
C      1  0.4446250000000  0.4907650000000  0.5326960000000 1.0
C      1  0.4446170000000  0.5092270000000  0.4673150000000 1.0
C      1  0.4907620000000  0.5553780000000  0.4673100000000 1.0
C      1  0.4673150000000  0.4907670000000  0.5553820000000 1.0
C      1  0.5553800000000  0.4673130000000  0.4907640000000 1.0
C      1  0.4907760000000  0.4446210000000  0.5326920000000 1.0
C      1  0.5092320000000  0.4446220000000  0.4673080000000 1.0
C      1  0.5092300000000  0.5553800000000  0.5326900000000 1.0
C      1  0.4673030000000  0.5092280000000  0.4446240000000 1.0
C      1  0.5326950000000  0.5092330000000  0.5553760000000 1.0
C      1  0.5326860000000  0.4907720000000  0.4446180000000 1.0
C      1  0.5553770000000  0.5326950000000  0.5092250000000 1.0
C      1  0.4446180000000  0.5326870000000  0.4907750000000 1.0
C      1  0.4446240000000  0.4673050000000  0.5092360000000 1.0
C      1  0.5153260000000  0.4356140000000  0.5046290000000 1.0
C      1  0.4356140000000  0.5046260000000  0.5153270000000 1.0
C      1  0.5046230000000  0.5153220000000  0.4356120000000 1.0
C      1  0.5153160000000  0.5643880000000  0.4953680000000 1.0
C      1  0.4846830000000  0.4356120000000  0.4953710000000 1.0
C      1  0.4846740000000  0.5643860000000  0.5046320000000 1.0
C      1  0.4356120000000  0.4953650000000  0.4846850000000 1.0
C      1  0.5643850000000  0.5046350000000  0.4846730000000 1.0
C      1  0.5643890000000  0.4953740000000  0.5153150000000 1.0
C      1  0.5046380000000  0.4846790000000  0.5643870000000 1.0
C      1  0.4953750000000  0.5153210000000  0.5643870000000 1.0
C      1  0.4953640000000  0.4846780000000  0.4356130000000 1.0
C      1  0.5153150000000  0.5046310000000  0.4356110000000 1.0
C      1  0.4356120000000  0.5153170000000  0.5046370000000 1.0
C      1  0.5046370000000  0.4356130000000  0.5153210000000 1.0
C      1  0.5153280000000  0.4953710000000  0.5643860000000 1.0
C      1  0.4846730000000  0.4953680000000  0.4356140000000 1.0
C      1  0.4846850000000  0.5046290000000  0.5643890000000 1.0
C      1  0.4356140000000  0.4846740000000  0.4953760000000 1.0
C      1  0.5643890000000  0.4846830000000  0.5046240000000 1.0
C      1  0.5643860000000  0.5153260000000  0.4953630000000 1.0
C      1  0.5046240000000  0.5643870000000  0.4846780000000 1.0
C      1  0.4953660000000  0.5643870000000  0.5153220000000 1.0
C      1  0.4953730000000  0.4356130000000  0.4846790000000 1.0
C      1  0.5538590000000  0.5335930000000  0.5433030000000 1.0
C      1  0.5335910000000  0.5433110000000  0.5538540000000 1.0
C      1  0.5433070000000  0.5538610000000  0.5335850000000 1.0
C      1  0.5538560000000  0.4664150000000  0.4566870000000 1.0
C      1  0.4461360000000  0.5335850000000  0.4566970000000 1.0
C      1  0.4461490000000  0.4664070000000  0.5433130000000 1.0
C      1  0.5335870000000  0.4566940000000  0.4461390000000 1.0
C      1  0.4664030000000  0.5433050000000  0.4461450000000 1.0
C      1  0.4664190000000  0.4566900000000  0.5538610000000 1.0
C      1  0.5433090000000  0.4461450000000  0.4664070000000 1.0
C      1  0.4566850000000  0.5538550000000  0.4664150000000 1.0
C      1  0.4566990000000  0.4461390000000  0.5335930000000 1.0
C      1  0.5538580000000  0.5433120000000  0.5335840000000 1.0
C      1  0.5335890000000  0.5538600000000  0.5433050000000 1.0
C      1  0.5433110000000  0.5335920000000  0.5538540000000 1.0
C      1  0.5538580000000  0.4566960000000  0.4664060000000 1.0
C      1  0.4461490000000  0.4566880000000  0.5335940000000 1.0
C      1  0.4461360000000  0.5433040000000  0.4664160000000 1.0
C      1  0.5335890000000  0.4461450000000  0.4566890000000 1.0
C      1  0.4664190000000  0.4461400000000  0.5433110000000 1.0
C      1  0.4664030000000  0.5538550000000  0.4566950000000 1.0
C      1  0.5433050000000  0.4664140000000  0.4461380000000 1.0
C      1  0.4567000000000  0.4664080000000  0.5538620000000 1.0
C      1  0.4566840000000  0.5335860000000  0.4461460000000 1.0
C      1  0.4809840000000  0.4912810000000  0.5615680000000 1.0
C      1  0.4912760000000  0.5615650000000  0.4809780000000 1.0
C      1  0.5615660000000  0.4809820000000  0.4912770000000 1.0
C      1  0.4809710000000  0.5087160000000  0.4384360000000 1.0
C      1  0.5190180000000  0.4912840000000  0.4384320000000 1.0
C      1  0.5190280000000  0.5087190000000  0.5615640000000 1.0
C      1  0.4912890000000  0.4384340000000  0.5190240000000 1.0
C      1  0.5087150000000  0.5615660000000  0.5190220000000 1.0
C      1  0.5087200000000  0.4384350000000  0.4809760000000 1.0
C      1  0.5615650000000  0.5190270000000  0.5087110000000 1.0
C      1  0.4384360000000  0.4809730000000  0.5087230000000 1.0
C      1  0.4384320000000  0.5190180000000  0.4912880000000 1.0
C      1  0.4809720000000  0.5615640000000  0.4912840000000 1.0
C      1  0.4912900000000  0.4809770000000  0.5615670000000 1.0
C      1  0.5615650000000  0.4912870000000  0.4809710000000 1.0
C      1  0.4809820000000  0.4384330000000  0.5087190000000 1.0
C      1  0.5190270000000  0.4384360000000  0.4912810000000 1.0
C      1  0.5190190000000  0.5615670000000  0.5087150000000 1.0
C      1  0.4912750000000  0.5190220000000  0.4384350000000 1.0
C      1  0.5087220000000  0.5190240000000  0.5615650000000 1.0
C      1  0.5087130000000  0.4809780000000  0.4384330000000 1.0
C      1  0.5615670000000  0.5087220000000  0.5190170000000 1.0
C      1  0.4384320000000  0.5087130000000  0.4809830000000 1.0
C      1  0.4384370000000  0.4912780000000  0.5190290000000 1.0
C      1  0.4746860000000  0.4358730000000  0.4848300000000 1.0
C      1  0.4358730000000  0.4848230000000  0.4746890000000 1.0
C      1  0.4848240000000  0.4746820000000  0.4358760000000 1.0
C      1  0.4746800000000  0.5641240000000  0.5151740000000 1.0
C      1  0.5253230000000  0.4358760000000  0.5151700000000 1.0
C      1  0.5253110000000  0.5641270000000  0.4848250000000 1.0
C      1  0.4358760000000  0.5151680000000  0.5253230000000 1.0
C      1  0.5641290000000  0.4848330000000  0.5253110000000 1.0
C      1  0.5641220000000  0.5151770000000  0.4746770000000 1.0
C      1  0.4848320000000  0.5253160000000  0.5641270000000 1.0
C      1  0.5151800000000  0.4746840000000  0.5641240000000 1.0
C      1  0.5151640000000  0.5253180000000  0.4358730000000 1.0
C      1  0.4746780000000  0.4848260000000  0.4358770000000 1.0
C      1  0.4358750000000  0.4746790000000  0.4848340000000 1.0
C      1  0.4848300000000  0.4358730000000  0.4746850000000 1.0
C      1  0.4746880000000  0.5151700000000  0.5641280000000 1.0
C      1  0.5253090000000  0.5151740000000  0.4358720000000 1.0
C      1  0.5253240000000  0.4848300000000  0.5641230000000 1.0
C      1  0.4358740000000  0.5253120000000  0.5151780000000 1.0
C      1  0.5641220000000  0.5253210000000  0.4848220000000 1.0
C      1  0.5641290000000  0.4746880000000  0.5151660000000 1.0
C      1  0.4848260000000  0.5641240000000  0.5253180000000 1.0
C      1  0.5151650000000  0.5641270000000  0.4746820000000 1.0
C      1  0.5151790000000  0.4358760000000  0.5253150000000 1.0
C      1  0.4845140000000  0.4645250000000  0.4452580000000 1.0
C      1  0.4645290000000  0.4452540000000  0.4845200000000 1.0
C      1  0.4452540000000  0.4845120000000  0.4645320000000 1.0
C      1  0.4845190000000  0.5354730000000  0.5547450000000 1.0
C      1  0.5154920000000  0.4645280000000  0.5547420000000 1.0
C      1  0.5154760000000  0.5354750000000  0.4452550000000 1.0
C      1  0.4645240000000  0.5547410000000  0.5154870000000 1.0
C      1  0.5354790000000  0.4452590000000  0.5154800000000 1.0
C      1  0.5354680000000  0.5547460000000  0.4845130000000 1.0
C      1  0.4452590000000  0.5154800000000  0.5354790000000 1.0
C      1  0.5547480000000  0.4845200000000  0.5354680000000 1.0
C      1  0.5547390000000  0.5154880000000  0.4645210000000 1.0
C      1  0.4845170000000  0.4452550000000  0.4645280000000 1.0
C      1  0.4645220000000  0.4845140000000  0.4452600000000 1.0
C      1  0.4452580000000  0.4645220000000  0.4845220000000 1.0
C      1  0.4845160000000  0.5547420000000  0.5354750000000 1.0
C      1  0.5154760000000  0.5547440000000  0.4645250000000 1.0
C      1  0.5154910000000  0.4452580000000  0.5354720000000 1.0
C      1  0.4645300000000  0.5154810000000  0.5547470000000 1.0
C      1  0.5354670000000  0.5154860000000  0.4452530000000 1.0
C      1  0.5354800000000  0.4845190000000  0.5547400000000 1.0
C      1  0.4452560000000  0.5354700000000  0.5154890000000 1.0
C      1  0.5547390000000  0.5354780000000  0.4845110000000 1.0
C      1  0.5547470000000  0.4645300000000  0.5154790000000 1.0
C      1  0.5276910000000  0.5379530000000  0.4521660000000 1.0
C      1  0.5379570000000  0.4521720000000  0.5276940000000 1.0
C      1  0.4521710000000  0.5276950000000  0.5379550000000 1.0
C      1  0.5277050000000  0.4620510000000  0.5478280000000 1.0
C      1  0.4723040000000  0.5379490000000  0.5478340000000 1.0
C      1  0.4723000000000  0.4620470000000  0.4521720000000 1.0
C      1  0.5379450000000  0.5478340000000  0.4722980000000 1.0
C      1  0.4620500000000  0.4521660000000  0.4723060000000 1.0
C      1  0.4620480000000  0.5478280000000  0.5277020000000 1.0
C      1  0.4521670000000  0.4722990000000  0.4620540000000 1.0
C      1  0.5478250000000  0.5277010000000  0.4620450000000 1.0
C      1  0.5478370000000  0.4723060000000  0.5379460000000 1.0
C      1  0.5277050000000  0.4521710000000  0.5379480000000 1.0
C      1  0.5379440000000  0.5277010000000  0.4521650000000 1.0
C      1  0.4521690000000  0.5379470000000  0.5277020000000 1.0
C      1  0.5276910000000  0.5478330000000  0.4620460000000 1.0
C      1  0.4723020000000  0.5478290000000  0.5379530000000 1.0
C      1  0.4723020000000  0.4521670000000  0.4620520000000 1.0
C      1  0.5379570000000  0.4723050000000  0.5478270000000 1.0
C      1  0.4620470000000  0.4722990000000  0.4521730000000 1.0
C      1  0.4620520000000  0.5276950000000  0.5478350000000 1.0
C      1  0.4521690000000  0.4620460000000  0.4723070000000 1.0
C      1  0.5478360000000  0.4620530000000  0.5276930000000 1.0
C      1  0.5478260000000  0.5379540000000  0.4722970000000 1.0
C      1  0.4476120000000  0.4583570000000  0.5191940000000 1.0
C      1  0.4583540000000  0.5191860000000  0.4476110000000 1.0
C      1  0.5191890000000  0.4476080000000  0.4583590000000 1.0
C      1  0.4476020000000  0.5416360000000  0.4808160000000 1.0
C      1  0.5523940000000  0.4583640000000  0.4808060000000 1.0
C      1  0.5523920000000  0.5416430000000  0.5191840000000 1.0
C      1  0.4583670000000  0.4808080000000  0.5523970000000 1.0
C      1  0.5416430000000  0.5191920000000  0.5523890000000 1.0
C      1  0.5416360000000  0.4808140000000  0.4476030000000 1.0
C      1  0.5191890000000  0.5523940000000  0.5416380000000 1.0
C      1  0.4808190000000  0.4476060000000  0.5416420000000 1.0
C      1  0.4808030000000  0.5523910000000  0.4583620000000 1.0
C      1  0.4476020000000  0.5191850000000  0.4583650000000 1.0
C      1  0.4583660000000  0.4476040000000  0.5191930000000 1.0
C      1  0.5191870000000  0.4583620000000  0.4476050000000 1.0
C      1  0.4476120000000  0.4808070000000  0.5416450000000 1.0
C      1  0.5523900000000  0.4808150000000  0.4583550000000 1.0
C      1  0.5523960000000  0.5191930000000  0.5416350000000 1.0
C      1  0.4583550000000  0.5523900000000  0.4808150000000 1.0
C      1  0.5416380000000  0.5523960000000  0.5191850000000 1.0
C      1  0.5416420000000  0.4476100000000  0.4808070000000 1.0
C      1  0.5191910000000  0.5416410000000  0.5523910000000 1.0
C      1  0.4808030000000  0.5416380000000  0.4476090000000 1.0
C      1  0.4808190000000  0.4583590000000  0.5523950000000 1.0
END
