TITL C-45663-7166-27 0.0123967080967404 1000000 -1631.63272154944 0 0 240 (C1) n - 1
REM
REM in /home/chem/mssmkc/work/GAP20/Larger-Clusters/Only-C240/New
REM
REM
REM
REM
REM
REM ./C.cell (28c9a5b7c779176d5635a9b681e7a0e1)
REM
REM compiler GCC version 8.3.0
REM options -cpp -mtune=generic -march=x86-64 -g -O0
REM seed -125181424 -115297978 -464964736 -76605920 -1276593489 51637050 -1998374749 1581084060 -370164729 -459590924 -704653915 1070443459 -1041537009 -858433600 -484820054 -614727280 -2111818570 -1773561625 312977262 -1597988061 289541722 -1944996779 1674835424 -2083548035 -363565672 1038438868 785244776 -615382731 1513922613 -2087954317 -508777236 -1988805634 -478070743
REM
CELL 1.54180  100.00000  100.00000  100.00000   90.00000   90.00000   90.00000
LATT -1
SFAC C  
C      1  0.4385960000000  0.5503570000000  0.5328430000000 1.0
C      1  0.5309330000000  0.4407430000000  0.5474370000000 1.0
C      1  0.5490060000000  0.5280650000000  0.4378270000000 1.0
C      1  0.5601280000000  0.5467130000000  0.4688380000000 1.0
C      1  0.4426120000000  0.4530790000000  0.4705310000000 1.0
C      1  0.5626440000000  0.4514750000000  0.5313470000000 1.0
C      1  0.4716510000000  0.4391560000000  0.4494840000000 1.0
C      1  0.5298280000000  0.5579560000000  0.4505870000000 1.0
C      1  0.4688890000000  0.5611500000000  0.5495920000000 1.0
C      1  0.4512170000000  0.5302300000000  0.5622280000000 1.0
C      1  0.5482350000000  0.4713570000000  0.5603320000000 1.0
C      1  0.4509420000000  0.4692470000000  0.4385190000000 1.0
C      1  0.4400350000000  0.4513020000000  0.5316950000000 1.0
C      1  0.5289500000000  0.5626220000000  0.5495740000000 1.0
C      1  0.5494270000000  0.4675710000000  0.4398220000000 1.0
C      1  0.5615070000000  0.4501020000000  0.4708600000000 1.0
C      1  0.4397720000000  0.5496350000000  0.4714140000000 1.0
C      1  0.5580790000000  0.5486360000000  0.5302520000000 1.0
C      1  0.4692580000000  0.5618370000000  0.4503510000000 1.0
C      1  0.5328410000000  0.4364880000000  0.4494820000000 1.0
C      1  0.4710700000000  0.4410810000000  0.5474430000000 1.0
C      1  0.4518730000000  0.4699910000000  0.5626890000000 1.0
C      1  0.5476790000000  0.5316540000000  0.5612270000000 1.0
C      1  0.4521580000000  0.5302180000000  0.4412420000000 1.0
C      1  0.5394460000000  0.5640040000000  0.5400100000000 1.0
C      1  0.5385470000000  0.5424840000000  0.5628100000000 1.0
C      1  0.5609560000000  0.5398180000000  0.5409880000000 1.0
C      1  0.4585480000000  0.5634030000000  0.4596890000000 1.0
C      1  0.5428550000000  0.4358410000000  0.4596320000000 1.0
C      1  0.4601870000000  0.4379240000000  0.5389970000000 1.0
C      1  0.4607110000000  0.5411260000000  0.4381120000000 1.0
C      1  0.5411990000000  0.4565490000000  0.4364360000000 1.0
C      1  0.4618130000000  0.4597210000000  0.5632150000000 1.0
C      1  0.4384030000000  0.5396620000000  0.4612860000000 1.0
C      1  0.5632670000000  0.4594140000000  0.4602590000000 1.0
C      1  0.4386320000000  0.4602880000000  0.5426200000000 1.0
C      1  0.5421250000000  0.4381980000000  0.5391330000000 1.0
C      1  0.5386910000000  0.4609590000000  0.5616080000000 1.0
C      1  0.5635220000000  0.4608020000000  0.5421520000000 1.0
C      1  0.4623050000000  0.4391820000000  0.4603520000000 1.0
C      1  0.5403990000000  0.5602300000000  0.4597210000000 1.0
C      1  0.4577160000000  0.5644100000000  0.5415450000000 1.0
C      1  0.4602080000000  0.4585430000000  0.4366200000000 1.0
C      1  0.5396470000000  0.5387250000000  0.4360850000000 1.0
C      1  0.4610420000000  0.5404630000000  0.5633640000000 1.0
C      1  0.4390440000000  0.4613740000000  0.4595950000000 1.0
C      1  0.5619230000000  0.5374150000000  0.4582220000000 1.0
C      1  0.4373930000000  0.5405310000000  0.5429850000000 1.0
C      1  0.4364850000000  0.4622590000000  0.4939720000000 1.0
C      1  0.4943280000000  0.4307080000000  0.4572410000000 1.0
C      1  0.4606500000000  0.4923260000000  0.4338580000000 1.0
C      1  0.5687930000000  0.4603820000000  0.5081550000000 1.0
C      1  0.4347980000000  0.5408640000000  0.5094830000000 1.0
C      1  0.5630750000000  0.5377720000000  0.4924570000000 1.0
C      1  0.5084740000000  0.4344150000000  0.5370030000000 1.0
C      1  0.4914320000000  0.5687660000000  0.5397550000000 1.0
C      1  0.5072950000000  0.5664040000000  0.4600290000000 1.0
C      1  0.5380610000000  0.4938800000000  0.5666660000000 1.0
C      1  0.4602720000000  0.5077600000000  0.5692360000000 1.0
C      1  0.5397530000000  0.5050350000000  0.4318300000000 1.0
C      1  0.4338320000000  0.5409860000000  0.4947340000000 1.0
C      1  0.4924970000000  0.5673970000000  0.4595450000000 1.0
C      1  0.4612540000000  0.5071010000000  0.4341550000000 1.0
C      1  0.5624820000000  0.5381140000000  0.5071700000000 1.0
C      1  0.4363720000000  0.4616920000000  0.5087100000000 1.0
C      1  0.5682180000000  0.4599660000000  0.4933460000000 1.0
C      1  0.5062440000000  0.5693190000000  0.5402070000000 1.0
C      1  0.4937300000000  0.4341000000000  0.5366010000000 1.0
C      1  0.5092760000000  0.4309540000000  0.4575640000000 1.0
C      1  0.5380070000000  0.5086660000000  0.5665540000000 1.0
C      1  0.4602900000000  0.4928580000000  0.5700740000000 1.0
C      1  0.5394780000000  0.4902600000000  0.4331160000000 1.0
C      1  0.4830310000000  0.5589370000000  0.4827350000000 1.0
C      1  0.4830300000000  0.4845880000000  0.5596170000000 1.0
C      1  0.5562460000000  0.4823320000000  0.4851720000000 1.0
C      1  0.5153800000000  0.5593530000000  0.5175590000000 1.0
C      1  0.4867700000000  0.4405970000000  0.5114810000000 1.0
C      1  0.5160170000000  0.4420810000000  0.4810650000000 1.0
C      1  0.5157550000000  0.4839780000000  0.4444180000000 1.0
C      1  0.4857090000000  0.5138010000000  0.4426350000000 1.0
C      1  0.5153820000000  0.5166990000000  0.5549130000000 1.0
C      1  0.4474020000000  0.4843110000000  0.5180350000000 1.0
C      1  0.5522120000000  0.5152230000000  0.5159180000000 1.0
C      1  0.4430810000000  0.5182510000000  0.4855800000000 1.0
C      1  0.4859500000000  0.4399610000000  0.4803220000000 1.0
C      1  0.4833840000000  0.5146490000000  0.5573490000000 1.0
C      1  0.5520230000000  0.5150850000000  0.4838130000000 1.0
C      1  0.5170730000000  0.4444110000000  0.5136940000000 1.0
C      1  0.4846090000000  0.5593750000000  0.5154420000000 1.0
C      1  0.5137700000000  0.5594780000000  0.4852200000000 1.0
C      1  0.5173330000000  0.5143360000000  0.4420060000000 1.0
C      1  0.4831860000000  0.4830530000000  0.4445320000000 1.0
C      1  0.5145450000000  0.4856600000000  0.5570700000000 1.0
C      1  0.4461160000000  0.5176190000000  0.5170180000000 1.0
C      1  0.5572370000000  0.4828640000000  0.5162120000000 1.0
C      1  0.4448010000000  0.4865710000000  0.4870060000000 1.0
C      1  0.4668450000000  0.4488380000000  0.4401930000000 1.0
C      1  0.4413670000000  0.4666540000000  0.4487150000000 1.0
C      1  0.4527820000000  0.4439460000000  0.4665200000000 1.0
C      1  0.5332720000000  0.4509600000000  0.5569740000000 1.0
C      1  0.4664020000000  0.5504300000000  0.5585760000000 1.0
C      1  0.5335730000000  0.5483270000000  0.4407850000000 1.0
C      1  0.5585190000000  0.4671700000000  0.5514000000000 1.0
C      1  0.4416250000000  0.5341240000000  0.5525740000000 1.0
C      1  0.5581160000000  0.5314020000000  0.4482210000000 1.0
C      1  0.5525890000000  0.4417540000000  0.5337660000000 1.0
C      1  0.4471350000000  0.5612010000000  0.5360980000000 1.0
C      1  0.5504660000000  0.5565510000000  0.4657280000000 1.0
C      1  0.4663220000000  0.5517420000000  0.4407820000000 1.0
C      1  0.4429560000000  0.5336760000000  0.4515630000000 1.0
C      1  0.4491680000000  0.5590890000000  0.4663690000000 1.0
C      1  0.5325920000000  0.5524460000000  0.5588060000000 1.0
C      1  0.4676470000000  0.4504600000000  0.5576130000000 1.0
C      1  0.5359960000000  0.4457190000000  0.4391760000000 1.0
C      1  0.5576140000000  0.5341220000000  0.5513750000000 1.0
C      1  0.4426520000000  0.4662110000000  0.5525930000000 1.0
C      1  0.5587330000000  0.4648650000000  0.4502180000000 1.0
C      1  0.5488720000000  0.5588300000000  0.5340110000000 1.0
C      1  0.4493660000000  0.4408580000000  0.5338720000000 1.0
C      1  0.5519180000000  0.4405420000000  0.4664760000000 1.0
C      1  0.4888490000000  0.4891410000000  0.4803960000000 1.0
C      1  0.4793040000000  0.4981750000000  0.4872600000000 1.0
C      1  0.4859190000000  0.4758390000000  0.4872190000000 1.0
C      1  0.5016740000000  0.4836250000000  0.5239960000000 1.0
C      1  0.4913590000000  0.5106680000000  0.5216280000000 1.0
C      1  0.5113300000000  0.5145380000000  0.4766680000000 1.0
C      1  0.5197900000000  0.4863120000000  0.5088570000000 1.0
C      1  0.4824330000000  0.5144820000000  0.5115560000000 1.0
C      1  0.5191180000000  0.5157850000000  0.4884070000000 1.0
C      1  0.5098850000000  0.4773040000000  0.5148860000000 1.0
C      1  0.4877300000000  0.5244730000000  0.5031350000000 1.0
C      1  0.5131640000000  0.5247860000000  0.4972660000000 1.0
C      1  0.4969210000000  0.5153420000000  0.4774500000000 1.0
C      1  0.4772350000000  0.5125270000000  0.4868890000000 1.0
C      1  0.4886420000000  0.5221270000000  0.4875830000000 1.0
C      1  0.5076120000000  0.5104830000000  0.5184950000000 1.0
C      1  0.4871450000000  0.4844870000000  0.5238380000000 1.0
C      1  0.5047060000000  0.4881310000000  0.4791880000000 1.0
C      1  0.5180390000000  0.5015210000000  0.5114070000000 1.0
C      1  0.4802300000000  0.4836460000000  0.5114300000000 1.0
C      1  0.5214450000000  0.4818730000000  0.4937820000000 1.0
C      1  0.5111120000000  0.5237040000000  0.5115310000000 1.0
C      1  0.4858940000000  0.4752560000000  0.5017060000000 1.0
C      1  0.5111530000000  0.4773930000000  0.4858150000000 1.0
C      1  0.5479290000000  0.4803560000000  0.4350050000000 1.0
C      1  0.4350530000000  0.5495020000000  0.4844480000000 1.0
C      1  0.4838690000000  0.4366170000000  0.5449980000000 1.0
C      1  0.4518270000000  0.4826520000000  0.5683740000000 1.0
C      1  0.5465070000000  0.5188060000000  0.5660430000000 1.0
C      1  0.4532470000000  0.5174000000000  0.4363600000000 1.0
C      1  0.5619570000000  0.5467890000000  0.5171670000000 1.0
C      1  0.4360350000000  0.4529670000000  0.5186570000000 1.0
C      1  0.5665890000000  0.4509640000000  0.4836610000000 1.0
C      1  0.5198570000000  0.4318350000000  0.4496480000000 1.0
C      1  0.4823120000000  0.5663710000000  0.4510200000000 1.0
C      1  0.5161140000000  0.5678300000000  0.5490770000000 1.0
C      1  0.5484220000000  0.5151390000000  0.4328310000000 1.0
C      1  0.4382440000000  0.4543500000000  0.4835120000000 1.0
C      1  0.4815350000000  0.5663460000000  0.5480850000000 1.0
C      1  0.4514240000000  0.5175370000000  0.5676600000000 1.0
C      1  0.5470530000000  0.4841690000000  0.5653210000000 1.0
C      1  0.4519490000000  0.4822910000000  0.4341200000000 1.0
C      1  0.5679750000000  0.4522750000000  0.5186270000000 1.0
C      1  0.4347790000000  0.5492940000000  0.5196740000000 1.0
C      1  0.5641500000000  0.5457980000000  0.4819730000000 1.0
C      1  0.5171810000000  0.5632670000000  0.4517970000000 1.0
C      1  0.4841760000000  0.4331210000000  0.4487930000000 1.0
C      1  0.5181530000000  0.4360070000000  0.5458290000000 1.0
C      1  0.5065810000000  0.5636680000000  0.4747890000000 1.0
C      1  0.4743510000000  0.5075450000000  0.5642700000000 1.0
C      1  0.5632440000000  0.4741490000000  0.5080460000000 1.0
C      1  0.4919450000000  0.5646010000000  0.5253280000000 1.0
C      1  0.5090210000000  0.4384300000000  0.5227500000000 1.0
C      1  0.4941690000000  0.4343870000000  0.4715230000000 1.0
C      1  0.5257960000000  0.5056630000000  0.4363760000000 1.0
C      1  0.4745630000000  0.4915090000000  0.4385750000000 1.0
C      1  0.5239900000000  0.4937640000000  0.5618160000000 1.0
C      1  0.4407920000000  0.4764910000000  0.4946590000000 1.0
C      1  0.5571630000000  0.5241720000000  0.4923730000000 1.0
C      1  0.4400940000000  0.5268260000000  0.5093680000000 1.0
C      1  0.5089380000000  0.4355180000000  0.4717250000000 1.0
C      1  0.4743050000000  0.4927330000000  0.5656410000000 1.0
C      1  0.5569960000000  0.5243540000000  0.5073530000000 1.0
C      1  0.4942060000000  0.4370870000000  0.5219470000000 1.0
C      1  0.5068590000000  0.5651360000000  0.5261600000000 1.0
C      1  0.4916620000000  0.5641440000000  0.4738090000000 1.0
C      1  0.5252960000000  0.4908480000000  0.4380520000000 1.0
C      1  0.4756310000000  0.5063800000000  0.4381960000000 1.0
C      1  0.5242540000000  0.5087270000000  0.5611400000000 1.0
C      1  0.4381490000000  0.5270330000000  0.4944250000000 1.0
C      1  0.5628360000000  0.4737490000000  0.4931260000000 1.0
C      1  0.4415860000000  0.4755190000000  0.5095080000000 1.0
C      1  0.5351810000000  0.4835330000000  0.5086470000000 1.0
C      1  0.5071840000000  0.5367580000000  0.4903980000000 1.0
C      1  0.4862200000000  0.5061440000000  0.5345520000000 1.0
C      1  0.4675620000000  0.4916230000000  0.4932330000000 1.0
C      1  0.5310120000000  0.5098620000000  0.4930640000000 1.0
C      1  0.4682190000000  0.5141680000000  0.5093150000000 1.0
C      1  0.4917580000000  0.5367370000000  0.5101530000000 1.0
C      1  0.5062710000000  0.4646270000000  0.5100470000000 1.0
C      1  0.4923000000000  0.4635770000000  0.4826120000000 1.0
C      1  0.5143230000000  0.5066700000000  0.4651190000000 1.0
C      1  0.4867490000000  0.4943180000000  0.4662450000000 1.0
C      1  0.5083840000000  0.4917160000000  0.5342930000000 1.0
C      1  0.5305600000000  0.5079040000000  0.5073050000000 1.0
C      1  0.5065380000000  0.4643000000000  0.4833750000000 1.0
C      1  0.4839640000000  0.4920500000000  0.5358400000000 1.0
C      1  0.4656950000000  0.5154010000000  0.4950880000000 1.0
C      1  0.5352760000000  0.4830570000000  0.4942690000000 1.0
C      1  0.4678890000000  0.4886670000000  0.5072450000000 1.0
C      1  0.4925220000000  0.4635550000000  0.5073650000000 1.0
C      1  0.5054470000000  0.5369220000000  0.5141100000000 1.0
C      1  0.4932070000000  0.5367370000000  0.4860100000000 1.0
C      1  0.5112150000000  0.4927980000000  0.4668660000000 1.0
C      1  0.4902750000000  0.5086820000000  0.4659900000000 1.0
C      1  0.5107560000000  0.5059390000000  0.5330060000000 1.0
C      1  0.5061480000000  0.5141940000000  0.5451580000000 1.0
C      1  0.5433500000000  0.5049630000000  0.5149570000000 1.0
C      1  0.5134430000000  0.5490560000000  0.5089730000000 1.0
C      1  0.4945760000000  0.5142510000000  0.4528620000000 1.0
C      1  0.5068340000000  0.4851160000000  0.4546980000000 1.0
C      1  0.4904810000000  0.4858850000000  0.5484490000000 1.0
C      1  0.4536910000000  0.5100570000000  0.4881090000000 1.0
C      1  0.5452990000000  0.4903660000000  0.4860230000000 1.0
C      1  0.4568160000000  0.4940050000000  0.5162130000000 1.0
C      1  0.4849010000000  0.5487950000000  0.4915550000000 1.0
C      1  0.5145700000000  0.4528440000000  0.4892770000000 1.0
C      1  0.4865050000000  0.4509490000000  0.5026800000000 1.0
C      1  0.5050190000000  0.4858770000000  0.5473890000000 1.0
C      1  0.5457970000000  0.4904970000000  0.5154300000000 1.0
C      1  0.5150960000000  0.4538620000000  0.5040500000000 1.0
C      1  0.4919930000000  0.4854550000000  0.4545600000000 1.0
C      1  0.5090820000000  0.5132700000000  0.4526140000000 1.0
C      1  0.4914630000000  0.5135280000000  0.5464560000000 1.0
C      1  0.4546580000000  0.4958170000000  0.4871860000000 1.0
C      1  0.5430400000000  0.5048420000000  0.4853530000000 1.0
C      1  0.4567020000000  0.5087020000000  0.5173130000000 1.0
C      1  0.4863150000000  0.4509220000000  0.4881980000000 1.0
C      1  0.5137610000000  0.5492640000000  0.4942870000000 1.0
C      1  0.4849260000000  0.5491620000000  0.5063170000000 1.0
END
