TITL C-45664-8239-2 0.0740813047005336 1000000 -3742.49154443858 0 0 520 (C1) n - 1
REM
REM in /home/chem/mssmkc/work/GAP20/Larger-Clusters/Only-C240/New
REM
REM
REM
REM
REM
REM ./C.cell (db1db5b03a21c153a00b653f6831bbfd)
REM
REM compiler GCC version 8.3.0
REM options -cpp -mtune=generic -march=x86-64 -g -O0
REM seed 1811211532 -2007197573 278926157 -1965817742 747301438 329262699 1880093927 -1287839271 -391412470 70540161 -1254575488 878609493 938457422 -38868207 -649251511 1098337592 52139121 1821150196 967866866 1546324344 320655186 -459635622 280074297 2132131324 -843722532 -28146519 -1212515485 -962922842 559914014 425839195 -471885496 1180268917 -194558828
REM
CELL 1.54180  100.00000  100.00000  100.00000   90.00000   90.00000   90.00000
LATT -1
SFAC C  
C      1  0.5184650000000  0.5569250000000  0.4405800000000 1.0
C      1  0.5199250000000  0.5818610000000  0.5087750000000 1.0
C      1  0.5197550000000  0.5441530000000  0.5693610000000 1.0
C      1  0.5180560000000  0.4738370000000  0.5786380000000 1.0
C      1  0.5178740000000  0.4218570000000  0.5288190000000 1.0
C      1  0.5181370000000  0.4286710000000  0.4567990000000 1.0
C      1  0.5174760000000  0.4883470000000  0.4168920000000 1.0
C      1  0.4498310000000  0.5360980000000  0.4352970000000 1.0
C      1  0.4506620000000  0.5730020000000  0.4874920000000 1.0
C      1  0.4503990000000  0.5565450000000  0.5499540000000 1.0
C      1  0.4506480000000  0.4974340000000  0.5740620000000 1.0
C      1  0.4498370000000  0.4415330000000  0.5429520000000 1.0
C      1  0.4503190000000  0.4300820000000  0.4800970000000 1.0
C      1  0.4500310000000  0.4718960000000  0.4319940000000 1.0
C      1  0.4590160000000  0.5720690000000  0.4755610000000 1.0
C      1  0.4589260000000  0.5650420000000  0.5418010000000 1.0
C      1  0.4593870000000  0.5089850000000  0.5755730000000 1.0
C      1  0.4585260000000  0.4473300000000  0.5531190000000 1.0
C      1  0.4587040000000  0.4259660000000  0.4912200000000 1.0
C      1  0.4586400000000  0.4606490000000  0.4354240000000 1.0
C      1  0.4583000000000  0.5263280000000  0.4285380000000 1.0
C      1  0.4820590000000  0.5106760000000  0.4697270000000 1.0
C      1  0.4810100000000  0.5297580000000  0.4898870000000 1.0
C      1  0.4795120000000  0.5290050000000  0.5162200000000 1.0
C      1  0.4805820000000  0.5048190000000  0.5308960000000 1.0
C      1  0.4807600000000  0.4787530000000  0.5219700000000 1.0
C      1  0.4816580000000  0.4695910000000  0.4959240000000 1.0
C      1  0.4816630000000  0.4840730000000  0.4734400000000 1.0
C      1  0.5232680000000  0.5740140000000  0.4820420000000 1.0
C      1  0.5230600000000  0.5601550000000  0.5470560000000 1.0
C      1  0.5223390000000  0.5010470000000  0.5768200000000 1.0
C      1  0.5222120000000  0.4403120000000  0.5491710000000 1.0
C      1  0.5223950000000  0.4240900000000  0.4840670000000 1.0
C      1  0.5232850000000  0.4641960000000  0.4307180000000 1.0
C      1  0.5222450000000  0.5312320000000  0.4305530000000 1.0
C      1  0.4573120000000  0.5364580000000  0.5242590000000 1.0
C      1  0.4580260000000  0.5049400000000  0.5422040000000 1.0
C      1  0.4575170000000  0.4704400000000  0.5285930000000 1.0
C      1  0.4578860000000  0.4594480000000  0.4943260000000 1.0
C      1  0.4586320000000  0.4794660000000  0.4635970000000 1.0
C      1  0.4585990000000  0.5158580000000  0.4605440000000 1.0
C      1  0.4579590000000  0.5409700000000  0.4874760000000 1.0
C      1  0.4983260000000  0.4158960000000  0.4983550000000 1.0
C      1  0.4988290000000  0.4490040000000  0.4329260000000 1.0
C      1  0.4975390000000  0.5190170000000  0.4206660000000 1.0
C      1  0.4994990000000  0.5762610000000  0.4653880000000 1.0
C      1  0.4997700000000  0.5753200000000  0.5386830000000 1.0
C      1  0.4991790000000  0.5172140000000  0.5825410000000 1.0
C      1  0.4983810000000  0.4463200000000  0.5648610000000 1.0
C      1  0.5487340000000  0.4962960000000  0.5254540000000 1.0
C      1  0.5495150000000  0.4770140000000  0.5136410000000 1.0
C      1  0.5500250000000  0.4743690000000  0.4909790000000 1.0
C      1  0.5500660000000  0.4905980000000  0.4749210000000 1.0
C      1  0.5494150000000  0.5132560000000  0.4774440000000 1.0
C      1  0.5490000000000  0.5253710000000  0.4965250000000 1.0
C      1  0.5483570000000  0.5175670000000  0.5177930000000 1.0
C      1  0.4926500000000  0.5122970000000  0.5491860000000 1.0
C      1  0.4922400000000  0.4688630000000  0.5396320000000 1.0
C      1  0.4927830000000  0.4497210000000  0.4998080000000 1.0
C      1  0.4923410000000  0.4685760000000  0.4599330000000 1.0
C      1  0.4924770000000  0.5116370000000  0.4484160000000 1.0
C      1  0.4920380000000  0.5467810000000  0.4791790000000 1.0
C      1  0.4916740000000  0.5481410000000  0.5224740000000 1.0
C      1  0.5408320000000  0.4968320000000  0.5580750000000 1.0
C      1  0.5417970000000  0.4515200000000  0.5343790000000 1.0
C      1  0.5422710000000  0.4424230000000  0.4837940000000 1.0
C      1  0.5425110000000  0.4762760000000  0.4453830000000 1.0
C      1  0.5426910000000  0.5280900000000  0.4479870000000 1.0
C      1  0.5421000000000  0.5572250000000  0.4894380000000 1.0
C      1  0.5406970000000  0.5431300000000  0.5376550000000 1.0
C      1  0.4391010000000  0.5501740000000  0.5153630000000 1.0
C      1  0.4396660000000  0.5206710000000  0.5484470000000 1.0
C      1  0.4396380000000  0.4762270000000  0.5450500000000 1.0
C      1  0.4391360000000  0.4509120000000  0.5080890000000 1.0
C      1  0.4399490000000  0.4627880000000  0.4650170000000 1.0
C      1  0.4396880000000  0.5042160000000  0.4488740000000 1.0
C      1  0.4393530000000  0.5425670000000  0.4711560000000 1.0
C      1  0.5103240000000  0.5004650000000  0.4149800000000 1.0
C      1  0.5117890000000  0.5673390000000  0.4476890000000 1.0
C      1  0.5126350000000  0.5833980000000  0.5210270000000 1.0
C      1  0.5123370000000  0.5359220000000  0.5783840000000 1.0
C      1  0.5109450000000  0.4615820000000  0.5770540000000 1.0
C      1  0.5107680000000  0.4156610000000  0.5180730000000 1.0
C      1  0.5111250000000  0.4330730000000  0.4450730000000 1.0
C      1  0.4829720000000  0.5329540000000  0.4363070000000 1.0
C      1  0.4842410000000  0.5710250000000  0.4859230000000 1.0
C      1  0.4840500000000  0.5557520000000  0.5464710000000 1.0
C      1  0.4839760000000  0.4992780000000  0.5707420000000 1.0
C      1  0.4834410000000  0.4442850000000  0.5431530000000 1.0
C      1  0.4836860000000  0.4316320000000  0.4828420000000 1.0
C      1  0.4833800000000  0.4706190000000  0.4350620000000 1.0
C      1  0.5100820000000  0.5789850000000  0.4860880000000 1.0
C      1  0.5098710000000  0.5603370000000  0.5532310000000 1.0
C      1  0.5088830000000  0.4964760000000  0.5802800000000 1.0
C      1  0.5085620000000  0.4349400000000  0.5474240000000 1.0
C      1  0.5087350000000  0.4223520000000  0.4786010000000 1.0
C      1  0.5091200000000  0.4704620000000  0.4289900000000 1.0
C      1  0.5088540000000  0.5375000000000  0.4290450000000 1.0
C      1  0.4734320000000  0.5569790000000  0.4661750000000 1.0
C      1  0.4728840000000  0.5633140000000  0.5242350000000 1.0
C      1  0.4736770000000  0.5216350000000  0.5622990000000 1.0
C      1  0.4730920000000  0.4652920000000  0.5547040000000 1.0
C      1  0.4731730000000  0.4358200000000  0.5063650000000 1.0
C      1  0.4732810000000  0.4548530000000  0.4526570000000 1.0
C      1  0.4727240000000  0.5089550000000  0.4340430000000 1.0
C      1  0.4777820000000  0.4424800000000  0.5191610000000 1.0
C      1  0.4770650000000  0.4485990000000  0.4660800000000 1.0
C      1  0.4770550000000  0.4944140000000  0.4374420000000 1.0
C      1  0.4777910000000  0.5452700000000  0.4571930000000 1.0
C      1  0.4756950000000  0.5648240000000  0.5086680000000 1.0
C      1  0.4779130000000  0.5327880000000  0.5530130000000 1.0
C      1  0.4774390000000  0.4795700000000  0.5575150000000 1.0
C      1  0.5680820000000  0.5495550000000  0.4898490000000 1.0
C      1  0.5662240000000  0.5393500000000  0.5314380000000 1.0
C      1  0.5660300000000  0.4999010000000  0.5506210000000 1.0
C      1  0.5678250000000  0.4595000000000  0.5307940000000 1.0
C      1  0.5685000000000  0.4504630000000  0.4874880000000 1.0
C      1  0.5686770000000  0.4788180000000  0.4535410000000 1.0
C      1  0.5686980000000  0.5231190000000  0.4545770000000 1.0
C      1  0.5120280000000  0.5248050000000  0.4551930000000 1.0
C      1  0.5116140000000  0.5488490000000  0.4933900000000 1.0
C      1  0.5107520000000  0.5356090000000  0.5337520000000 1.0
C      1  0.5105340000000  0.4948510000000  0.5491670000000 1.0
C      1  0.5108420000000  0.4575870000000  0.5273970000000 1.0
C      1  0.5117640000000  0.4519270000000  0.4841680000000 1.0
C      1  0.5114730000000  0.4830250000000  0.4529530000000 1.0
C      1  0.5771650000000  0.4590190000000  0.4958980000000 1.0
C      1  0.5773060000000  0.4776970000000  0.4654430000000 1.0
C      1  0.5772180000000  0.5130770000000  0.4611670000000 1.0
C      1  0.5769350000000  0.5384330000000  0.4860840000000 1.0
C      1  0.5760380000000  0.5350170000000  0.5212000000000 1.0
C      1  0.5755450000000  0.5055210000000  0.5407080000000 1.0
C      1  0.5763330000000  0.4714990000000  0.5295470000000 1.0
C      1  0.4852790000000  0.4693810000000  0.4737960000000 1.0
C      1  0.4847130000000  0.5025500000000  0.4575670000000 1.0
C      1  0.4836830000000  0.5346470000000  0.4765410000000 1.0
C      1  0.4833230000000  0.5423680000000  0.5111730000000 1.0
C      1  0.4861100000000  0.5178430000000  0.5354450000000 1.0
C      1  0.4860470000000  0.4829760000000  0.5351450000000 1.0
C      1  0.4868970000000  0.4622250000000  0.5076660000000 1.0
C      1  0.4943850000000  0.4778390000000  0.5775540000000 1.0
C      1  0.4941860000000  0.4255510000000  0.5309250000000 1.0
C      1  0.4944400000000  0.4293650000000  0.4606410000000 1.0
C      1  0.4936070000000  0.4855110000000  0.4179730000000 1.0
C      1  0.4949170000000  0.5541080000000  0.4394660000000 1.0
C      1  0.4959970000000  0.5817090000000  0.5051370000000 1.0
C      1  0.4957900000000  0.5469220000000  0.5664990000000 1.0
C      1  0.4490880000000  0.5508570000000  0.4796790000000 1.0
C      1  0.4486830000000  0.5487080000000  0.5275590000000 1.0
C      1  0.4494780000000  0.5101050000000  0.5540040000000 1.0
C      1  0.4490540000000  0.4650160000000  0.5403490000000 1.0
C      1  0.4490180000000  0.4470990000000  0.4967300000000 1.0
C      1  0.4497760000000  0.4695780000000  0.4554410000000 1.0
C      1  0.4494630000000  0.5160460000000  0.4478800000000 1.0
C      1  0.5763450000000  0.5186770000000  0.5363580000000 1.0
C      1  0.5763820000000  0.4832000000000  0.5373320000000 1.0
C      1  0.5775990000000  0.4601690000000  0.5098060000000 1.0
C      1  0.5778920000000  0.4675130000000  0.4749150000000 1.0
C      1  0.5778460000000  0.4993550000000  0.4590780000000 1.0
C      1  0.5777260000000  0.5315100000000  0.4741000000000 1.0
C      1  0.5773300000000  0.5398810000000  0.5084090000000 1.0
C      1  0.5120130000000  0.4161000000000  0.5041000000000 1.0
C      1  0.5124810000000  0.4442660000000  0.4367270000000 1.0
C      1  0.5095300000000  0.5111000000000  0.4252990000000 1.0
C      1  0.5130020000000  0.5725690000000  0.4606100000000 1.0
C      1  0.5134140000000  0.5766430000000  0.5332000000000 1.0
C      1  0.5129170000000  0.5221790000000  0.5805550000000 1.0
C      1  0.5120850000000  0.4509650000000  0.5679910000000 1.0
C      1  0.4982790000000  0.4637040000000  0.5276810000000 1.0
C      1  0.4989020000000  0.4555270000000  0.4882100000000 1.0
C      1  0.4996500000000  0.4810780000000  0.4604470000000 1.0
C      1  0.4994410000000  0.5199120000000  0.4580590000000 1.0
C      1  0.4987630000000  0.5434470000000  0.4921380000000 1.0
C      1  0.4979210000000  0.5367010000000  0.5289360000000 1.0
C      1  0.4982310000000  0.4997050000000  0.5452840000000 1.0
C      1  0.4271540000000  0.5088490000000  0.4709470000000 1.0
C      1  0.4269580000000  0.5280670000000  0.4888990000000 1.0
C      1  0.4265800000000  0.5274860000000  0.5149860000000 1.0
C      1  0.4266750000000  0.5071890000000  0.5315030000000 1.0
C      1  0.4256980000000  0.4808320000000  0.5245990000000 1.0
C      1  0.4257050000000  0.4688890000000  0.4969210000000 1.0
C      1  0.4269620000000  0.4825970000000  0.4736450000000 1.0
C      1  0.5223740000000  0.4509030000000  0.5581280000000 1.0
C      1  0.5225010000000  0.4236010000000  0.4979710000000 1.0
C      1  0.5232620000000  0.4531540000000  0.4389760000000 1.0
C      1  0.5221520000000  0.5174390000000  0.4291070000000 1.0
C      1  0.5229610000000  0.5678830000000  0.4695260000000 1.0
C      1  0.5230130000000  0.5662600000000  0.5346620000000 1.0
C      1  0.5226240000000  0.5144860000000  0.5736930000000 1.0
C      1  0.5592190000000  0.5077440000000  0.4865080000000 1.0
C      1  0.5591370000000  0.5151460000000  0.4979450000000 1.0
C      1  0.5588510000000  0.5105300000000  0.5107970000000 1.0
C      1  0.5589780000000  0.4976390000000  0.5153390000000 1.0
C      1  0.5594970000000  0.4859850000000  0.5082200000000 1.0
C      1  0.5597820000000  0.4843920000000  0.4946290000000 1.0
C      1  0.5596330000000  0.4941700000000  0.4850320000000 1.0
C      1  0.4900480000000  0.5279450000000  0.5815370000000 1.0
C      1  0.4889820000000  0.4540450000000  0.5720940000000 1.0
C      1  0.4888060000000  0.4151960000000  0.5088190000000 1.0
C      1  0.4892970000000  0.4401070000000  0.4385550000000 1.0
C      1  0.4887160000000  0.5099370000000  0.4145920000000 1.0
C      1  0.4900050000000  0.5727510000000  0.4554700000000 1.0
C      1  0.4904770000000  0.5809860000000  0.5296060000000 1.0
C      1  0.5269260000000  0.4890180000000  0.5303750000000 1.0
C      1  0.5283210000000  0.4679610000000  0.5116750000000 1.0
C      1  0.5287780000000  0.4702220000000  0.4827510000000 1.0
C      1  0.5286920000000  0.4944440000000  0.4664920000000 1.0
C      1  0.5282320000000  0.5228510000000  0.4742920000000 1.0
C      1  0.5267660000000  0.5315840000000  0.5016570000000 1.0
C      1  0.5258830000000  0.5167300000000  0.5254920000000 1.0
C      1  0.4862930000000  0.5723730000000  0.5006720000000 1.0
C      1  0.4864600000000  0.5443880000000  0.5557930000000 1.0
C      1  0.4859150000000  0.4846860000000  0.5681800000000 1.0
C      1  0.4856730000000  0.4371210000000  0.5302570000000 1.0
C      1  0.4857330000000  0.4370630000000  0.4690780000000 1.0
C      1  0.4852800000000  0.4845580000000  0.4300540000000 1.0
C      1  0.4855890000000  0.5447410000000  0.4449110000000 1.0
C      1  0.5013590000000  0.4584460000000  0.4566770000000 1.0
C      1  0.5019920000000  0.5045360000000  0.4392840000000 1.0
C      1  0.5020760000000  0.5504320000000  0.4703230000000 1.0
C      1  0.5014600000000  0.5577650000000  0.5205800000000 1.0
C      1  0.5017280000000  0.5196160000000  0.5564680000000 1.0
C      1  0.5013490000000  0.4671390000000  0.5499790000000 1.0
C      1  0.5015250000000  0.4403960000000  0.5054280000000 1.0
C      1  0.5575810000000  0.5101560000000  0.4396070000000 1.0
C      1  0.5571540000000  0.5536860000000  0.4702550000000 1.0
C      1  0.5521300000000  0.5586020000000  0.5222000000000 1.0
C      1  0.5517260000000  0.5192450000000  0.5595910000000 1.0
C      1  0.5561840000000  0.4643310000000  0.5499420000000 1.0
C      1  0.5572430000000  0.4382010000000  0.5031870000000 1.0
C      1  0.5578410000000  0.4587240000000  0.4538530000000 1.0
C      1  0.5353270000000  0.4354490000000  0.5172270000000 1.0
C      1  0.5355160000000  0.4460190000000  0.4605840000000 1.0
C      1  0.5351690000000  0.4967590000000  0.4342980000000 1.0
C      1  0.5355160000000  0.5495720000000  0.4568580000000 1.0
C      1  0.5374650000000  0.5635540000000  0.5141250000000 1.0
C      1  0.5371710000000  0.5280790000000  0.5585530000000 1.0
C      1  0.5349330000000  0.4732590000000  0.5602680000000 1.0
C      1  0.5687050000000  0.5504290000000  0.5036830000000 1.0
C      1  0.5673680000000  0.5291270000000  0.5409870000000 1.0
C      1  0.5672290000000  0.4860700000000  0.5483230000000 1.0
C      1  0.5687800000000  0.4528400000000  0.5186720000000 1.0
C      1  0.5692240000000  0.4558720000000  0.4747750000000 1.0
C      1  0.5692660000000  0.4921410000000  0.4498580000000 1.0
C      1  0.5693530000000  0.5343450000000  0.4626760000000 1.0
C      1  0.4595240000000  0.4316720000000  0.5393510000000 1.0
C      1  0.4599830000000  0.4265400000000  0.4702630000000 1.0
C      1  0.4594570000000  0.4774410000000  0.4229130000000 1.0
C      1  0.4595650000000  0.5465170000000  0.4342080000000 1.0
C      1  0.4609960000000  0.5798710000000  0.4945540000000 1.0
C      1  0.4604290000000  0.5549730000000  0.5600750000000 1.0
C      1  0.4603510000000  0.4883620000000  0.5792190000000 1.0
C      1  0.5302130000000  0.4332850000000  0.4633980000000 1.0
C      1  0.5269220000000  0.4863980000000  0.4287280000000 1.0
C      1  0.5302650000000  0.5495050000000  0.4437980000000 1.0
C      1  0.5318690000000  0.5743030000000  0.5052160000000 1.0
C      1  0.5316060000000  0.5418360000000  0.5613290000000 1.0
C      1  0.5298200000000  0.4789600000000  0.5720640000000 1.0
C      1  0.5299070000000  0.4299270000000  0.5290460000000 1.0
C      1  0.5586440000000  0.5435170000000  0.4617420000000 1.0
C      1  0.5574510000000  0.5562760000000  0.5094820000000 1.0
C      1  0.5565680000000  0.5277760000000  0.5495390000000 1.0
C      1  0.5569880000000  0.4774400000000  0.5527930000000 1.0
C      1  0.5582870000000  0.4438590000000  0.5153070000000 1.0
C      1  0.5586880000000  0.4527140000000  0.4657780000000 1.0
C      1  0.5584690000000  0.4971250000000  0.4420830000000 1.0
C      1  0.5335480000000  0.5705500000000  0.4914480000000 1.0
C      1  0.5329280000000  0.5500590000000  0.5497000000000 1.0
C      1  0.5324420000000  0.4928100000000  0.5711470000000 1.0
C      1  0.5326680000000  0.4391650000000  0.5394240000000 1.0
C      1  0.5329860000000  0.4308220000000  0.4771360000000 1.0
C      1  0.5336670000000  0.4738370000000  0.4322140000000 1.0
C      1  0.5330070000000  0.5367440000000  0.4382770000000 1.0
C      1  0.4959790000000  0.5309230000000  0.4275030000000 1.0
C      1  0.4974230000000  0.5766720000000  0.4792550000000 1.0
C      1  0.4972680000000  0.5644710000000  0.5472480000000 1.0
C      1  0.4966220000000  0.5039080000000  0.5789260000000 1.0
C      1  0.4961660000000  0.4407730000000  0.5521410000000 1.0
C      1  0.4963110000000  0.4223970000000  0.4860250000000 1.0
C      1  0.4965250000000  0.4628140000000  0.4312190000000 1.0
C      1  0.4730270000000  0.5201940000000  0.4594470000000 1.0
C      1  0.4718660000000  0.5453970000000  0.4909810000000 1.0
C      1  0.4715670000000  0.5365500000000  0.5286130000000 1.0
C      1  0.4722400000000  0.5011330000000  0.5445810000000 1.0
C      1  0.4718690000000  0.4660100000000  0.5273270000000 1.0
C      1  0.4720730000000  0.4572570000000  0.4899260000000 1.0
C      1  0.4727550000000  0.4816570000000  0.4593870000000 1.0
C      1  0.4771530000000  0.5032280000000  0.5161330000000 1.0
C      1  0.4777300000000  0.4894430000000  0.5114050000000 1.0
C      1  0.4783750000000  0.4844340000000  0.4978570000000 1.0
C      1  0.4777270000000  0.4918440000000  0.4855360000000 1.0
C      1  0.4778340000000  0.5060630000000  0.4835520000000 1.0
C      1  0.4771240000000  0.5163140000000  0.4939360000000 1.0
C      1  0.4766960000000  0.5154920000000  0.5083850000000 1.0
C      1  0.4762450000000  0.5282030000000  0.5397380000000 1.0
C      1  0.4760970000000  0.4869110000000  0.5455470000000 1.0
C      1  0.4765540000000  0.4564220000000  0.5171350000000 1.0
C      1  0.4750270000000  0.4588580000000  0.4755500000000 1.0
C      1  0.4759540000000  0.4934970000000  0.4515230000000 1.0
C      1  0.4761770000000  0.5336380000000  0.4648240000000 1.0
C      1  0.4743980000000  0.5507970000000  0.5043540000000 1.0
C      1  0.5083500000000  0.4939140000000  0.4444160000000 1.0
C      1  0.5139520000000  0.5433840000000  0.4680170000000 1.0
C      1  0.5134650000000  0.5566450000000  0.5148450000000 1.0
C      1  0.5139690000000  0.5232770000000  0.5528370000000 1.0
C      1  0.5136750000000  0.4721560000000  0.5510040000000 1.0
C      1  0.5138060000000  0.4423460000000  0.5103120000000 1.0
C      1  0.5135970000000  0.4558120000000  0.4612600000000 1.0
C      1  0.5076410000000  0.5501280000000  0.4341380000000 1.0
C      1  0.5090670000000  0.5828960000000  0.4991820000000 1.0
C      1  0.5088820000000  0.5522590000000  0.5641370000000 1.0
C      1  0.5072670000000  0.4830030000000  0.5810980000000 1.0
C      1  0.5070080000000  0.4257910000000  0.5374300000000 1.0
C      1  0.5072040000000  0.4245290000000  0.4651780000000 1.0
C      1  0.5066770000000  0.4789880000000  0.4176050000000 1.0
C      1  0.5153660000000  0.5297370000000  0.5108680000000 1.0
C      1  0.5153330000000  0.5066880000000  0.5291150000000 1.0
C      1  0.5166110000000  0.4799770000000  0.5250700000000 1.0
C      1  0.5177750000000  0.4672030000000  0.5017380000000 1.0
C      1  0.5174770000000  0.4759720000000  0.4759960000000 1.0
C      1  0.5176260000000  0.5037830000000  0.4655840000000 1.0
C      1  0.5165630000000  0.5307800000000  0.4791180000000 1.0
C      1  0.4440200000000  0.4507430000000  0.5341510000000 1.0
C      1  0.4444880000000  0.4426930000000  0.4814890000000 1.0
C      1  0.4445690000000  0.4787170000000  0.4429410000000 1.0
C      1  0.4442270000000  0.5315800000000  0.4473440000000 1.0
C      1  0.4445880000000  0.5611950000000  0.4918200000000 1.0
C      1  0.4442650000000  0.5460250000000  0.5430320000000 1.0
C      1  0.4446810000000  0.4963230000000  0.5614460000000 1.0
C      1  0.4221410000000  0.5151720000000  0.4936560000000 1.0
C      1  0.4217250000000  0.5154770000000  0.5084270000000 1.0
C      1  0.4209150000000  0.5050310000000  0.5187150000000 1.0
C      1  0.4182530000000  0.4908820000000  0.5171590000000 1.0
C      1  0.4182250000000  0.4810600000000  0.4956820000000 1.0
C      1  0.4211050000000  0.4896350000000  0.4843650000000 1.0
C      1  0.4220880000000  0.5042350000000  0.4836630000000 1.0
C      1  0.4439760000000  0.5603920000000  0.5067240000000 1.0
C      1  0.4442070000000  0.5337700000000  0.5513930000000 1.0
C      1  0.4442550000000  0.4821590000000  0.5570940000000 1.0
C      1  0.4437610000000  0.4453360000000  0.5203150000000 1.0
C      1  0.4441780000000  0.4496550000000  0.4684280000000 1.0
C      1  0.4439680000000  0.4933790000000  0.4405820000000 1.0
C      1  0.4438770000000  0.5423860000000  0.4575540000000 1.0
C      1  0.5819450000000  0.5315500000000  0.4977320000000 1.0
C      1  0.5812650000000  0.5216460000000  0.5232700000000 1.0
C      1  0.5810480000000  0.4954970000000  0.5315920000000 1.0
C      1  0.5818070000000  0.4724630000000  0.5160840000000 1.0
C      1  0.5822700000000  0.4703130000000  0.4883490000000 1.0
C      1  0.5822690000000  0.4906670000000  0.4696240000000 1.0
C      1  0.5821410000000  0.5178860000000  0.4739160000000 1.0
C      1  0.4691960000000  0.5361840000000  0.4293240000000 1.0
C      1  0.4702080000000  0.5775350000000  0.4834770000000 1.0
C      1  0.4700450000000  0.5617950000000  0.5511180000000 1.0
C      1  0.4702130000000  0.4995090000000  0.5787080000000 1.0
C      1  0.4693440000000  0.4386900000000  0.5479800000000 1.0
C      1  0.4696440000000  0.4244020000000  0.4814020000000 1.0
C      1  0.4693870000000  0.4673330000000  0.4280060000000 1.0
C      1  0.4694560000000  0.5854020000000  0.5184130000000 1.0
C      1  0.4689060000000  0.5393500000000  0.5782230000000 1.0
C      1  0.4682170000000  0.4642770000000  0.5785270000000 1.0
C      1  0.4675660000000  0.4169220000000  0.5203840000000 1.0
C      1  0.4681110000000  0.4318290000000  0.4467710000000 1.0
C      1  0.4671430000000  0.4990190000000  0.4124780000000 1.0
C      1  0.4682760000000  0.5676720000000  0.4453250000000 1.0
C      1  0.4575660000000  0.5589350000000  0.4687220000000 1.0
C      1  0.4573960000000  0.5623640000000  0.5269990000000 1.0
C      1  0.4580990000000  0.5187390000000  0.5642510000000 1.0
C      1  0.4574960000000  0.4622910000000  0.5536100000000 1.0
C      1  0.4574320000000  0.4351400000000  0.5030980000000 1.0
C      1  0.4578230000000  0.4569620000000  0.4498930000000 1.0
C      1  0.4573040000000  0.5125470000000  0.4343730000000 1.0
C      1  0.5859590000000  0.4974980000000  0.5176310000000 1.0
C      1  0.5863550000000  0.4847870000000  0.5090730000000 1.0
C      1  0.5866380000000  0.4835370000000  0.4937530000000 1.0
C      1  0.5866420000000  0.4947150000000  0.4833210000000 1.0
C      1  0.5865110000000  0.5098050000000  0.4855960000000 1.0
C      1  0.5862940000000  0.5174550000000  0.4987970000000 1.0
C      1  0.5859700000000  0.5119970000000  0.5130150000000 1.0
C      1  0.4932230000000  0.4958700000000  0.5324510000000 1.0
C      1  0.4939720000000  0.4719720000000  0.5167820000000 1.0
C      1  0.4937320000000  0.4684910000000  0.4856200000000 1.0
C      1  0.4986660000000  0.4883700000000  0.4732310000000 1.0
C      1  0.4976440000000  0.5146110000000  0.4718280000000 1.0
C      1  0.4966780000000  0.5290640000000  0.4944060000000 1.0
C      1  0.4925110000000  0.5249850000000  0.5231950000000 1.0
C      1  0.4626680000000  0.5772100000000  0.5085490000000 1.0
C      1  0.4598570000000  0.5435110000000  0.5686140000000 1.0
C      1  0.4594420000000  0.4745440000000  0.5756580000000 1.0
C      1  0.4588270000000  0.4258590000000  0.5263450000000 1.0
C      1  0.4592910000000  0.4328060000000  0.4573850000000 1.0
C      1  0.4583860000000  0.4914660000000  0.4200210000000 1.0
C      1  0.4591670000000  0.5573330000000  0.4436200000000 1.0
C      1  0.4355020000000  0.4669240000000  0.4872590000000 1.0
C      1  0.4362780000000  0.4892430000000  0.4656730000000 1.0
C      1  0.4359540000000  0.5197310000000  0.4702520000000 1.0
C      1  0.4354310000000  0.5358000000000  0.4970680000000 1.0
C      1  0.4353330000000  0.5257480000000  0.5258670000000 1.0
C      1  0.4356340000000  0.4974380000000  0.5364130000000 1.0
C      1  0.4341090000000  0.4711130000000  0.5187930000000 1.0
C      1  0.5130220000000  0.5351390000000  0.5467440000000 1.0
C      1  0.5117060000000  0.4841560000000  0.5566860000000 1.0
C      1  0.5119170000000  0.4451470000000  0.5233350000000 1.0
C      1  0.5127920000000  0.4475110000000  0.4718400000000 1.0
C      1  0.5138500000000  0.4826120000000  0.4379650000000 1.0
C      1  0.5117450000000  0.5380690000000  0.4552310000000 1.0
C      1  0.5129060000000  0.5589900000000  0.5016790000000 1.0
C      1  0.5571570000000  0.4708520000000  0.4485420000000 1.0
C      1  0.5572760000000  0.5221140000000  0.4453370000000 1.0
C      1  0.5567090000000  0.5560160000000  0.4832880000000 1.0
C      1  0.5544360000000  0.5483630000000  0.5318270000000 1.0
C      1  0.5542550000000  0.5052240000000  0.5580860000000 1.0
C      1  0.5562610000000  0.4561990000000  0.5394610000000 1.0
C      1  0.5569490000000  0.4414980000000  0.4903350000000 1.0
C      1  0.5041940000000  0.5232990000000  0.4825300000000 1.0
C      1  0.5022550000000  0.5224090000000  0.5086950000000 1.0
C      1  0.5043820000000  0.4989680000000  0.5203070000000 1.0
C      1  0.5061520000000  0.4830560000000  0.5142410000000 1.0
C      1  0.5105690000000  0.4793670000000  0.4998180000000 1.0
C      1  0.5052040000000  0.4792550000000  0.4843300000000 1.0
C      1  0.5052710000000  0.5017530000000  0.4718630000000 1.0
C      1  0.5334410000000  0.4701990000000  0.4575590000000 1.0
C      1  0.5347500000000  0.5144130000000  0.4505320000000 1.0
C      1  0.5336850000000  0.5468150000000  0.4809700000000 1.0
C      1  0.5316510000000  0.5428360000000  0.5243070000000 1.0
C      1  0.5315140000000  0.5068240000000  0.5490940000000 1.0
C      1  0.5327320000000  0.4646900000000  0.5373090000000 1.0
C      1  0.5334120000000  0.4481290000000  0.4961860000000 1.0
C      1  0.4762400000000  0.5689090000000  0.4563950000000 1.0
C      1  0.4766200000000  0.5781570000000  0.5274880000000 1.0
C      1  0.4765820000000  0.5281800000000  0.5767220000000 1.0
C      1  0.4756590000000  0.4580990000000  0.5688980000000 1.0
C      1  0.4754600000000  0.4203040000000  0.5097630000000 1.0
C      1  0.4758500000000  0.4424090000000  0.4428280000000 1.0
C      1  0.4750890000000  0.5083590000000  0.4182720000000 1.0
C      1  0.4316920000000  0.4693400000000  0.4741140000000 1.0
C      1  0.4318100000000  0.5010420000000  0.4600970000000 1.0
C      1  0.4316610000000  0.5316040000000  0.4758620000000 1.0
C      1  0.4312930000000  0.5398260000000  0.5096060000000 1.0
C      1  0.4313900000000  0.5191180000000  0.5372390000000 1.0
C      1  0.4315220000000  0.4841990000000  0.5368940000000 1.0
C      1  0.4305670000000  0.4623010000000  0.5085450000000 1.0
C      1  0.4523930000000  0.5326460000000  0.5630040000000 1.0
C      1  0.4519980000000  0.4721700000000  0.5636290000000 1.0
C      1  0.4516890000000  0.4339410000000  0.5168960000000 1.0
C      1  0.4519880000000  0.4451890000000  0.4574190000000 1.0
C      1  0.4514360000000  0.4992190000000  0.4299660000000 1.0
C      1  0.4518740000000  0.5541490000000  0.4556680000000 1.0
C      1  0.4522880000000  0.5688910000000  0.5146430000000 1.0
C      1  0.4967340000000  0.4640240000000  0.5781720000000 1.0
C      1  0.4965100000000  0.4165160000000  0.5204940000000 1.0
C      1  0.4968540000000  0.4317850000000  0.4470350000000 1.0
C      1  0.4963650000000  0.4981740000000  0.4123030000000 1.0
C      1  0.4976070000000  0.5663760000000  0.4455160000000 1.0
C      1  0.4984150000000  0.5845760000000  0.5185600000000 1.0
C      1  0.4981230000000  0.5387670000000  0.5775890000000 1.0
C      1  0.5498750000000  0.5028630000000  0.4666510000000 1.0
C      1  0.5495120000000  0.5274340000000  0.4816680000000 1.0
C      1  0.5483170000000  0.5305250000000  0.5102910000000 1.0
C      1  0.5479410000000  0.5102760000000  0.5305730000000 1.0
C      1  0.5487030000000  0.4817330000000  0.5279660000000 1.0
C      1  0.5495270000000  0.4660460000000  0.5036220000000 1.0
C      1  0.5497910000000  0.4755720000000  0.4761450000000 1.0
C      1  0.4798290000000  0.4688570000000  0.4508710000000 1.0
C      1  0.4798260000000  0.5188740000000  0.4437400000000 1.0
C      1  0.4800210000000  0.5559880000000  0.4803600000000 1.0
C      1  0.4795050000000  0.5515040000000  0.5311310000000 1.0
C      1  0.4800250000000  0.5085020000000  0.5573900000000 1.0
C      1  0.4794650000000  0.4605000000000  0.5415730000000 1.0
C      1  0.4798190000000  0.4430100000000  0.4944790000000 1.0
C      1  0.5209310000000  0.5313040000000  0.5242560000000 1.0
C      1  0.5212380000000  0.4991320000000  0.5402860000000 1.0
C      1  0.5223090000000  0.4665920000000  0.5256350000000 1.0
C      1  0.5229930000000  0.4587260000000  0.4907740000000 1.0
C      1  0.5228170000000  0.4808910000000  0.4626020000000 1.0
C      1  0.5231470000000  0.5168790000000  0.4609720000000 1.0
C      1  0.5225830000000  0.5397530000000  0.4896760000000 1.0
C      1  0.5397740000000  0.5010700000000  0.4568260000000 1.0
C      1  0.5394610000000  0.5342260000000  0.4741130000000 1.0
C      1  0.5376680000000  0.5400030000000  0.5104240000000 1.0
C      1  0.5370640000000  0.5158130000000  0.5378860000000 1.0
C      1  0.5380340000000  0.4790970000000  0.5371970000000 1.0
C      1  0.5391190000000  0.4568610000000  0.5075300000000 1.0
C      1  0.5393970000000  0.4667740000000  0.4713730000000 1.0
C      1  0.5341660000000  0.5108830000000  0.5128520000000 1.0
C      1  0.5345010000000  0.4954070000000  0.5172930000000 1.0
C      1  0.5353540000000  0.4825340000000  0.5081180000000 1.0
C      1  0.5355600000000  0.4820680000000  0.4919290000000 1.0
C      1  0.5351740000000  0.4946330000000  0.4814790000000 1.0
C      1  0.5344160000000  0.5108230000000  0.4842930000000 1.0
C      1  0.5342730000000  0.5176560000000  0.4984070000000 1.0
C      1  0.4500920000000  0.5248450000000  0.5210270000000 1.0
C      1  0.4501420000000  0.5000340000000  0.5317390000000 1.0
C      1  0.4492090000000  0.4758420000000  0.5186490000000 1.0
C      1  0.4499030000000  0.4707440000000  0.4917440000000 1.0
C      1  0.4507900000000  0.4884530000000  0.4710240000000 1.0
C      1  0.4509230000000  0.5157420000000  0.4723300000000 1.0
C      1  0.4503940000000  0.5317190000000  0.4948230000000 1.0
C      1  0.5265200000000  0.5576340000000  0.5225880000000 1.0
C      1  0.5264210000000  0.5178120000000  0.5593710000000 1.0
C      1  0.5267600000000  0.4640810000000  0.5521260000000 1.0
C      1  0.5271680000000  0.4362490000000  0.5048230000000 1.0
C      1  0.5272990000000  0.4561360000000  0.4534060000000 1.0
C      1  0.5315960000000  0.5100340000000  0.4364990000000 1.0
C      1  0.5273010000000  0.5534440000000  0.4685540000000 1.0
C      1  0.4515040000000  0.5170360000000  0.4968420000000 1.0
C      1  0.4511010000000  0.5138170000000  0.5108250000000 1.0
C      1  0.4505900000000  0.5008060000000  0.5167370000000 1.0
C      1  0.4504290000000  0.4881100000000  0.5100740000000 1.0
C      1  0.4505920000000  0.4851210000000  0.4959970000000 1.0
C      1  0.4513420000000  0.4941430000000  0.4848890000000 1.0
C      1  0.4518310000000  0.5084420000000  0.4853460000000 1.0
C      1  0.5444430000000  0.5382500000000  0.4595500000000 1.0
C      1  0.5433530000000  0.5534640000000  0.5041970000000 1.0
C      1  0.5423660000000  0.5294240000000  0.5441120000000 1.0
C      1  0.5427890000000  0.4826040000000  0.5521630000000 1.0
C      1  0.5438400000000  0.4472040000000  0.5194720000000 1.0
C      1  0.5441900000000  0.4514900000000  0.4711090000000 1.0
C      1  0.5442530000000  0.4917680000000  0.4446690000000 1.0
C      1  0.4114940000000  0.4861620000000  0.5063230000000 1.0
C      1  0.5028320000000  0.5078490000000  0.5090310000000 1.0
END
