TITL C-45663-7166-2 -197.632107489214 1000000 -3675.47690053552 0 0 520 (C1) n - 1
REM
REM in /home/chem/mssmkc/work/GAP20/Larger-Clusters/Only-C240/New
REM
REM
REM
REM
REM
REM ./C.cell (db1db5b03a21c153a00b653f6831bbfd)
REM
REM compiler GCC version 8.3.0
REM options -cpp -mtune=generic -march=x86-64 -g -O0
REM seed 611130265 -402910992 372688680 -1688725721 -1819876536 -1253162002 -1845700320 755392537 -1615173518 1063519743 1538367696 1985632983 -778734978 1619796644 -224709508 1648649301 431469041 -1093456734 1083242239 184480308 1453676517 1049260696 -1287482111 63576817 -1236921791 -1832113404 1879153956 -1606008255 -466120833 -1679224098 128280196 -1625749371 -404511792
REM
CELL 1.54180  100.00000  100.00000  100.00000   90.00000   90.00000   90.00000
LATT -1
SFAC C  
C      1  0.5075460000000  0.4209860000000  0.4904190000000 1.0
C      1  0.4926820000000  0.4209670000000  0.4903490000000 1.0
C      1  0.5179890000000  0.5260730000000  0.4890090000000 1.0
C      1  0.4820310000000  0.5264380000000  0.4894260000000 1.0
C      1  0.4916130000000  0.5024520000000  0.5490120000000 1.0
C      1  0.5083870000000  0.5024290000000  0.5490020000000 1.0
C      1  0.5491610000000  0.5515030000000  0.4743140000000 1.0
C      1  0.4507860000000  0.5527870000000  0.4755720000000 1.0
C      1  0.5598200000000  0.5581030000000  0.4826430000000 1.0
C      1  0.4400480000000  0.5591530000000  0.4837630000000 1.0
C      1  0.4920550000000  0.5542120000000  0.5263140000000 1.0
C      1  0.5081380000000  0.5541830000000  0.5261930000000 1.0
C      1  0.5071690000000  0.5173200000000  0.5473510000000 1.0
C      1  0.4928950000000  0.5173590000000  0.5473740000000 1.0
C      1  0.5056100000000  0.4915910000000  0.4327910000000 1.0
C      1  0.4914370000000  0.4918070000000  0.4329080000000 1.0
C      1  0.5590420000000  0.4542650000000  0.5402050000000 1.0
C      1  0.4408940000000  0.4543660000000  0.5400180000000 1.0
C      1  0.4694940000000  0.4427700000000  0.4526690000000 1.0
C      1  0.5308310000000  0.4437390000000  0.4534340000000 1.0
C      1  0.5072400000000  0.4947010000000  0.5923340000000 1.0
C      1  0.4927330000000  0.4947070000000  0.5923340000000 1.0
C      1  0.4468850000000  0.4473800000000  0.4568650000000 1.0
C      1  0.5530710000000  0.4478430000000  0.4570910000000 1.0
C      1  0.5383090000000  0.4586670000000  0.5606550000000 1.0
C      1  0.4616050000000  0.4586400000000  0.5605860000000 1.0
C      1  0.5842640000000  0.5097610000000  0.5063250000000 1.0
C      1  0.4157500000000  0.5100600000000  0.5064730000000 1.0
C      1  0.5485410000000  0.5313330000000  0.5453740000000 1.0
C      1  0.4516160000000  0.5314270000000  0.5457350000000 1.0
C      1  0.5146940000000  0.5032840000000  0.5623640000000 1.0
C      1  0.4853600000000  0.5032820000000  0.5623930000000 1.0
C      1  0.4924630000000  0.4764490000000  0.5517190000000 1.0
C      1  0.5074380000000  0.4764610000000  0.5517220000000 1.0
C      1  0.4792420000000  0.5884430000000  0.4958160000000 1.0
C      1  0.5210290000000  0.5878140000000  0.4950660000000 1.0
C      1  0.5068710000000  0.4692540000000  0.4861290000000 1.0
C      1  0.4928670000000  0.4692040000000  0.4859960000000 1.0
C      1  0.5732460000000  0.4741970000000  0.4850670000000 1.0
C      1  0.4268610000000  0.4745100000000  0.4847570000000 1.0
C      1  0.5079470000000  0.4475690000000  0.4418950000000 1.0
C      1  0.4937480000000  0.4476400000000  0.4414090000000 1.0
C      1  0.5398450000000  0.4998480000000  0.4537180000000 1.0
C      1  0.4592170000000  0.5019770000000  0.4539770000000 1.0
C      1  0.5072160000000  0.5705940000000  0.4870760000000 1.0
C      1  0.4928540000000  0.5708170000000  0.4874770000000 1.0
C      1  0.4477780000000  0.4421470000000  0.4702280000000 1.0
C      1  0.5523740000000  0.4421480000000  0.4703320000000 1.0
C      1  0.4566670000000  0.4574840000000  0.5164370000000 1.0
C      1  0.5432410000000  0.4572510000000  0.5166740000000 1.0
C      1  0.4283960000000  0.5047540000000  0.4637630000000 1.0
C      1  0.5717320000000  0.5042210000000  0.4640180000000 1.0
C      1  0.5637400000000  0.4565750000000  0.4602350000000 1.0
C      1  0.4368910000000  0.4569530000000  0.4599630000000 1.0
C      1  0.5338100000000  0.4900270000000  0.5564280000000 1.0
C      1  0.4661870000000  0.4900310000000  0.5564680000000 1.0
C      1  0.5437520000000  0.5731070000000  0.4955670000000 1.0
C      1  0.4563510000000  0.5738940000000  0.4966390000000 1.0
C      1  0.5338180000000  0.5028440000000  0.5067190000000 1.0
C      1  0.4660790000000  0.5031010000000  0.5068850000000 1.0
C      1  0.4849310000000  0.5387910000000  0.4809390000000 1.0
C      1  0.5151400000000  0.5384450000000  0.4805880000000 1.0
C      1  0.5405210000000  0.4658200000000  0.4471030000000 1.0
C      1  0.4598950000000  0.4642530000000  0.4456020000000 1.0
C      1  0.4331900000000  0.5178190000000  0.4710060000000 1.0
C      1  0.5663900000000  0.5171160000000  0.4705130000000 1.0
C      1  0.4610510000000  0.5127200000000  0.4274680000000 1.0
C      1  0.5416370000000  0.5189750000000  0.4291460000000 1.0
C      1  0.4753830000000  0.4943160000000  0.5664900000000 1.0
C      1  0.5246420000000  0.4943220000000  0.5664540000000 1.0
C      1  0.4414320000000  0.5300930000000  0.4640810000000 1.0
C      1  0.5578820000000  0.5284900000000  0.4625830000000 1.0
C      1  0.5358610000000  0.5556200000000  0.4772810000000 1.0
C      1  0.4641890000000  0.5566020000000  0.4785290000000 1.0
C      1  0.5644520000000  0.4695380000000  0.4544520000000 1.0
C      1  0.4365780000000  0.4699690000000  0.4540840000000 1.0
C      1  0.4198650000000  0.4807330000000  0.5079610000000 1.0
C      1  0.5801680000000  0.4805310000000  0.5081340000000 1.0
C      1  0.5144150000000  0.4839080000000  0.5873610000000 1.0
C      1  0.4855710000000  0.4838950000000  0.5873830000000 1.0
C      1  0.4612440000000  0.5005950000000  0.4202760000000 1.0
C      1  0.5387020000000  0.5041210000000  0.4269060000000 1.0
C      1  0.5763220000000  0.5290690000000  0.4924560000000 1.0
C      1  0.4233770000000  0.5294030000000  0.4928440000000 1.0
C      1  0.4916920000000  0.5519590000000  0.4203700000000 1.0
C      1  0.5058040000000  0.5520360000000  0.4215530000000 1.0
C      1  0.4700630000000  0.5830570000000  0.5177590000000 1.0
C      1  0.5303160000000  0.5825620000000  0.5168640000000 1.0
C      1  0.4873310000000  0.4646530000000  0.4214720000000 1.0
C      1  0.5164310000000  0.4658210000000  0.4234470000000 1.0
C      1  0.4199230000000  0.4898760000000  0.5192690000000 1.0
C      1  0.5801350000000  0.4897310000000  0.5193660000000 1.0
C      1  0.4400660000000  0.5640110000000  0.5088620000000 1.0
C      1  0.5600880000000  0.5633880000000  0.5078090000000 1.0
C      1  0.5155690000000  0.4310670000000  0.4586720000000 1.0
C      1  0.4850120000000  0.4310030000000  0.4584480000000 1.0
C      1  0.4466720000000  0.4367330000000  0.4914720000000 1.0
C      1  0.5534980000000  0.4365440000000  0.4916130000000 1.0
C      1  0.5133050000000  0.5403880000000  0.4268230000000 1.0
C      1  0.4848990000000  0.5402210000000  0.4267150000000 1.0
C      1  0.4555710000000  0.4352990000000  0.4799280000000 1.0
C      1  0.5445660000000  0.4353430000000  0.4800530000000 1.0
C      1  0.4867480000000  0.4951160000000  0.5028020000000 1.0
C      1  0.5131140000000  0.4949590000000  0.5027870000000 1.0
C      1  0.5804010000000  0.5024800000000  0.4949700000000 1.0
C      1  0.4196170000000  0.5028980000000  0.4949930000000 1.0
C      1  0.5819030000000  0.4637430000000  0.4911650000000 1.0
C      1  0.4182000000000  0.4640430000000  0.4908160000000 1.0
C      1  0.5258940000000  0.5587130000000  0.4973830000000 1.0
C      1  0.4742500000000  0.5590490000000  0.4978610000000 1.0
C      1  0.4524430000000  0.4976360000000  0.5116580000000 1.0
C      1  0.5474560000000  0.4974270000000  0.5115390000000 1.0
C      1  0.5289920000000  0.4351900000000  0.4776730000000 1.0
C      1  0.4711800000000  0.4350370000000  0.4774680000000 1.0
C      1  0.5305660000000  0.4758320000000  0.5368080000000 1.0
C      1  0.4693490000000  0.4758700000000  0.5367680000000 1.0
C      1  0.5808660000000  0.4972350000000  0.4722070000000 1.0
C      1  0.4194890000000  0.4975320000000  0.4720300000000 1.0
C      1  0.4378530000000  0.5505340000000  0.5113790000000 1.0
C      1  0.5621710000000  0.5499550000000  0.5105540000000 1.0
C      1  0.4847670000000  0.4378840000000  0.5065050000000 1.0
C      1  0.5151590000000  0.4378700000000  0.5066150000000 1.0
C      1  0.4876770000000  0.5595140000000  0.4938120000000 1.0
C      1  0.5124810000000  0.5593000000000  0.4934060000000 1.0
C      1  0.4467670000000  0.5178950000000  0.5036280000000 1.0
C      1  0.5531040000000  0.5176250000000  0.5031280000000 1.0
C      1  0.4843150000000  0.5247900000000  0.4467580000000 1.0
C      1  0.5152560000000  0.5239170000000  0.4464790000000 1.0
C      1  0.4731930000000  0.5458280000000  0.4747630000000 1.0
C      1  0.5267410000000  0.5448340000000  0.4736170000000 1.0
C      1  0.4640390000000  0.4504540000000  0.5484980000000 1.0
C      1  0.5358370000000  0.4504690000000  0.5485920000000 1.0
C      1  0.4502000000000  0.4764590000000  0.4738130000000 1.0
C      1  0.5497510000000  0.4758730000000  0.4739730000000 1.0
C      1  0.4452270000000  0.5215700000000  0.5350890000000 1.0
C      1  0.5547940000000  0.5213950000000  0.5347640000000 1.0
C      1  0.4646430000000  0.5112880000000  0.4427000000000 1.0
C      1  0.5339360000000  0.5079650000000  0.4424590000000 1.0
C      1  0.5288420000000  0.5021410000000  0.4155060000000 1.0
C      1  0.4721070000000  0.4993750000000  0.4109280000000 1.0
C      1  0.5291480000000  0.4328110000000  0.4625710000000 1.0
C      1  0.4713880000000  0.4325160000000  0.4623930000000 1.0
C      1  0.4501460000000  0.4363590000000  0.5054130000000 1.0
C      1  0.5499050000000  0.4361950000000  0.5055270000000 1.0
C      1  0.4687020000000  0.5748720000000  0.5424410000000 1.0
C      1  0.5315690000000  0.5746370000000  0.5416760000000 1.0
C      1  0.5511970000000  0.5223760000000  0.5570220000000 1.0
C      1  0.4490010000000  0.5223700000000  0.5572900000000 1.0
C      1  0.5605190000000  0.4949780000000  0.5360540000000 1.0
C      1  0.4394540000000  0.4950930000000  0.5361520000000 1.0
C      1  0.4527340000000  0.4817760000000  0.5583600000000 1.0
C      1  0.5472220000000  0.4817870000000  0.5583300000000 1.0
C      1  0.5470420000000  0.5274650000000  0.5132590000000 1.0
C      1  0.4528110000000  0.5278420000000  0.5136880000000 1.0
C      1  0.4609650000000  0.4618650000000  0.4947540000000 1.0
C      1  0.5390360000000  0.4615620000000  0.4950690000000 1.0
C      1  0.5324650000000  0.4639630000000  0.5080160000000 1.0
C      1  0.4674520000000  0.4641880000000  0.5077840000000 1.0
C      1  0.4208290000000  0.5433790000000  0.4886010000000 1.0
C      1  0.5793070000000  0.5429870000000  0.4881900000000 1.0
C      1  0.5732540000000  0.5240640000000  0.5195020000000 1.0
C      1  0.4266650000000  0.5243340000000  0.5198940000000 1.0
C      1  0.5686620000000  0.4823640000000  0.4988800000000 1.0
C      1  0.4313070000000  0.4826510000000  0.4986860000000 1.0
C      1  0.4837170000000  0.4489900000000  0.4954520000000 1.0
C      1  0.5162030000000  0.4489510000000  0.4956350000000 1.0
C      1  0.5722420000000  0.4866750000000  0.5303690000000 1.0
C      1  0.4277340000000  0.4868180000000  0.5303390000000 1.0
C      1  0.4680970000000  0.4630430000000  0.4828380000000 1.0
C      1  0.5318770000000  0.4626940000000  0.4831640000000 1.0
C      1  0.5279200000000  0.4885350000000  0.4123010000000 1.0
C      1  0.4745200000000  0.4855700000000  0.4096120000000 1.0
C      1  0.5292080000000  0.5456890000000  0.4434130000000 1.0
C      1  0.4689270000000  0.5466060000000  0.4430860000000 1.0
C      1  0.4929280000000  0.4483350000000  0.5676060000000 1.0
C      1  0.5069910000000  0.4483500000000  0.5676150000000 1.0
C      1  0.4732160000000  0.4683800000000  0.4415080000000 1.0
C      1  0.5280350000000  0.4741150000000  0.4455050000000 1.0
C      1  0.4819290000000  0.4315910000000  0.5401710000000 1.0
C      1  0.5179290000000  0.4315960000000  0.5402410000000 1.0
C      1  0.5152490000000  0.4961150000000  0.4523710000000 1.0
C      1  0.4836020000000  0.4972750000000  0.4529790000000 1.0
C      1  0.5218080000000  0.4507380000000  0.4806970000000 1.0
C      1  0.4781160000000  0.4506700000000  0.4804370000000 1.0
C      1  0.5541250000000  0.4973170000000  0.4837030000000 1.0
C      1  0.4455490000000  0.4978620000000  0.4836780000000 1.0
C      1  0.5541220000000  0.4471320000000  0.5136020000000 1.0
C      1  0.4458670000000  0.4473400000000  0.5133980000000 1.0
C      1  0.4410120000000  0.4670260000000  0.4813100000000 1.0
C      1  0.5590820000000  0.4666710000000  0.4815720000000 1.0
C      1  0.5496250000000  0.5202500000000  0.4547980000000 1.0
C      1  0.4497990000000  0.5222960000000  0.4562850000000 1.0
C      1  0.4847390000000  0.4250080000000  0.4799630000000 1.0
C      1  0.5156250000000  0.4250120000000  0.4801240000000 1.0
C      1  0.4552450000000  0.4853790000000  0.5034570000000 1.0
C      1  0.5446140000000  0.4850660000000  0.5034770000000 1.0
C      1  0.5243500000000  0.5227200000000  0.5153290000000 1.0
C      1  0.4755840000000  0.5228580000000  0.5155260000000 1.0
C      1  0.5194960000000  0.5882280000000  0.5088320000000 1.0
C      1  0.4808440000000  0.5886310000000  0.5095760000000 1.0
C      1  0.5712880000000  0.4735610000000  0.5349600000000 1.0
C      1  0.4286800000000  0.4736900000000  0.5348750000000 1.0
C      1  0.4425840000000  0.5521720000000  0.5348300000000 1.0
C      1  0.5575410000000  0.5518930000000  0.5340600000000 1.0
C      1  0.4858830000000  0.4670010000000  0.5615730000000 1.0
C      1  0.5140340000000  0.4670280000000  0.5615700000000 1.0
C      1  0.5773790000000  0.5193540000000  0.4806480000000 1.0
C      1  0.4222240000000  0.5196270000000  0.4810350000000 1.0
C      1  0.4587530000000  0.5383430000000  0.5036550000000 1.0
C      1  0.5410720000000  0.5379070000000  0.5032090000000 1.0
C      1  0.5151500000000  0.4557840000000  0.5382860000000 1.0
C      1  0.4847500000000  0.4557840000000  0.5382650000000 1.0
C      1  0.5200630000000  0.5780520000000  0.4861970000000 1.0
C      1  0.4801120000000  0.5785810000000  0.4870430000000 1.0
C      1  0.5659070000000  0.4443250000000  0.4873420000000 1.0
C      1  0.4343590000000  0.4446800000000  0.4870910000000 1.0
C      1  0.5442290000000  0.4903220000000  0.4282920000000 1.0
C      1  0.4579940000000  0.4879190000000  0.4261890000000 1.0
C      1  0.5800930000000  0.5230680000000  0.5067290000000 1.0
C      1  0.4198080000000  0.5233860000000  0.5071100000000 1.0
C      1  0.5222030000000  0.5379480000000  0.5406120000000 1.0
C      1  0.4779400000000  0.5381270000000  0.5407960000000 1.0
C      1  0.5077790000000  0.4593360000000  0.5162260000000 1.0
C      1  0.4920840000000  0.4593650000000  0.5161790000000 1.0
C      1  0.4695900000000  0.4359130000000  0.5459970000000 1.0
C      1  0.5302440000000  0.4359300000000  0.5460900000000 1.0
C      1  0.4922500000000  0.4663250000000  0.5299840000000 1.0
C      1  0.5076310000000  0.4663120000000  0.5300060000000 1.0
C      1  0.4637670000000  0.4780850000000  0.4784740000000 1.0
C      1  0.5359830000000  0.4772570000000  0.4784220000000 1.0
C      1  0.4345660000000  0.4972260000000  0.4954800000000 1.0
C      1  0.5653180000000  0.4968720000000  0.4954710000000 1.0
C      1  0.4932450000000  0.5548650000000  0.5612130000000 1.0
C      1  0.5071860000000  0.5548800000000  0.5610900000000 1.0
C      1  0.4858290000000  0.4538330000000  0.4666110000000 1.0
C      1  0.5139400000000  0.4540280000000  0.4671740000000 1.0
C      1  0.4484610000000  0.4689680000000  0.5201500000000 1.0
C      1  0.5514570000000  0.4687760000000  0.5203110000000 1.0
C      1  0.5754090000000  0.5128480000000  0.5276050000000 1.0
C      1  0.4245960000000  0.5129830000000  0.5278290000000 1.0
C      1  0.5084030000000  0.5000300000000  0.4648300000000 1.0
C      1  0.4914990000000  0.5002500000000  0.4650680000000 1.0
C      1  0.4355130000000  0.5105310000000  0.5387740000000 1.0
C      1  0.5645170000000  0.5104200000000  0.5385470000000 1.0
C      1  0.5275790000000  0.5809230000000  0.5304230000000 1.0
C      1  0.4727980000000  0.5813170000000  0.5313070000000 1.0
C      1  0.4721290000000  0.4858450000000  0.4696100000000 1.0
C      1  0.5272380000000  0.4846280000000  0.4694570000000 1.0
C      1  0.4481690000000  0.5705350000000  0.5185310000000 1.0
C      1  0.5520900000000  0.5700430000000  0.5174940000000 1.0
C      1  0.5074280000000  0.4253980000000  0.5041540000000 1.0
C      1  0.4925760000000  0.4254290000000  0.5040670000000 1.0
C      1  0.4807930000000  0.5492240000000  0.5663030000000 1.0
C      1  0.5196560000000  0.5492120000000  0.5659980000000 1.0
C      1  0.5067860000000  0.4851110000000  0.4461110000000 1.0
C      1  0.4906360000000  0.4854430000000  0.4462650000000 1.0
C      1  0.4159430000000  0.5069330000000  0.4822330000000 1.0
C      1  0.5839280000000  0.5068180000000  0.4822730000000 1.0
C      1  0.4850530000000  0.4722010000000  0.4493500000000 1.0
C      1  0.5136120000000  0.4726710000000  0.4500210000000 1.0
C      1  0.4941160000000  0.5888460000000  0.5142500000000 1.0
C      1  0.5063870000000  0.5886930000000  0.5140130000000 1.0
C      1  0.4805490000000  0.5353720000000  0.5711510000000 1.0
C      1  0.5197470000000  0.5353750000000  0.5709650000000 1.0
C      1  0.4588770000000  0.4916630000000  0.4894090000000 1.0
C      1  0.5407950000000  0.4910730000000  0.4894260000000 1.0
C      1  0.5422910000000  0.4259430000000  0.5268560000000 1.0
C      1  0.4574240000000  0.4258360000000  0.5268080000000 1.0
C      1  0.5289670000000  0.4886710000000  0.4554250000000 1.0
C      1  0.4701970000000  0.4928870000000  0.4578390000000 1.0
C      1  0.4705240000000  0.5336860000000  0.4508440000000 1.0
C      1  0.5291930000000  0.5318470000000  0.4494960000000 1.0
C      1  0.5593160000000  0.4882110000000  0.5507690000000 1.0
C      1  0.4406520000000  0.4882510000000  0.5508210000000 1.0
C      1  0.5179250000000  0.4416030000000  0.5290360000000 1.0
C      1  0.4819510000000  0.4415800000000  0.5289570000000 1.0
C      1  0.4917570000000  0.5122660000000  0.5726180000000 1.0
C      1  0.5084000000000  0.5122540000000  0.5726330000000 1.0
C      1  0.4483050000000  0.4979470000000  0.5727550000000 1.0
C      1  0.5518100000000  0.4979760000000  0.5726480000000 1.0
C      1  0.4695290000000  0.4914880000000  0.5431880000000 1.0
C      1  0.5304210000000  0.4914330000000  0.5431500000000 1.0
C      1  0.4369530000000  0.4940200000000  0.4582040000000 1.0
C      1  0.5631150000000  0.4934670000000  0.4591050000000 1.0
C      1  0.5552620000000  0.5417780000000  0.5010170000000 1.0
C      1  0.4445230000000  0.5422820000000  0.5017050000000 1.0
C      1  0.4929380000000  0.5274130000000  0.5721810000000 1.0
C      1  0.5073260000000  0.5274110000000  0.5721500000000 1.0
C      1  0.5471720000000  0.4933110000000  0.5267110000000 1.0
C      1  0.4527730000000  0.4934300000000  0.5267810000000 1.0
C      1  0.5525530000000  0.4649420000000  0.4947520000000 1.0
C      1  0.4474460000000  0.4652450000000  0.4945300000000 1.0
C      1  0.5485920000000  0.4455180000000  0.5423850000000 1.0
C      1  0.4512970000000  0.4455670000000  0.5422190000000 1.0
C      1  0.4513980000000  0.5399130000000  0.4682520000000 1.0
C      1  0.5482420000000  0.5385070000000  0.4668970000000 1.0
C      1  0.5522250000000  0.5647490000000  0.5310580000000 1.0
C      1  0.4479960000000  0.5650420000000  0.5319550000000 1.0
C      1  0.5244490000000  0.4928270000000  0.5124920000000 1.0
C      1  0.4754480000000  0.4929960000000  0.5125090000000 1.0
C      1  0.5071310000000  0.4716750000000  0.5860260000000 1.0
C      1  0.4928580000000  0.4716680000000  0.5860440000000 1.0
C      1  0.5306420000000  0.5572860000000  0.5593370000000 1.0
C      1  0.4697870000000  0.5573300000000  0.5598660000000 1.0
C      1  0.4653710000000  0.5335040000000  0.5365300000000 1.0
C      1  0.5347300000000  0.5332220000000  0.5362900000000 1.0
C      1  0.5276710000000  0.5382420000000  0.4223870000000 1.0
C      1  0.4703520000000  0.5361430000000  0.4229020000000 1.0
C      1  0.4922810000000  0.5084460000000  0.5073880000000 1.0
C      1  0.5076570000000  0.5083420000000  0.5073360000000 1.0
C      1  0.4328410000000  0.4527030000000  0.5169650000000 1.0
C      1  0.5671230000000  0.4525180000000  0.5172010000000 1.0
C      1  0.4637110000000  0.5013610000000  0.5328130000000 1.0
C      1  0.5362320000000  0.5012650000000  0.5327190000000 1.0
C      1  0.4379110000000  0.5447500000000  0.5242720000000 1.0
C      1  0.5621100000000  0.5443790000000  0.5235420000000 1.0
C      1  0.5067790000000  0.4825760000000  0.5052020000000 1.0
C      1  0.4930080000000  0.4826570000000  0.5050900000000 1.0
C      1  0.4861850000000  0.5138970000000  0.4691610000000 1.0
C      1  0.5136790000000  0.5136470000000  0.4688870000000 1.0
C      1  0.5076420000000  0.5186530000000  0.4954850000000 1.0
C      1  0.4923650000000  0.5187910000000  0.4955650000000 1.0
C      1  0.5555070000000  0.4886650000000  0.4720800000000 1.0
C      1  0.4441950000000  0.4892190000000  0.4718320000000 1.0
C      1  0.5284790000000  0.4611740000000  0.5403300000000 1.0
C      1  0.4714150000000  0.4611800000000  0.5402650000000 1.0
C      1  0.4442540000000  0.5670450000000  0.4952800000000 1.0
C      1  0.5557550000000  0.5661620000000  0.4941670000000 1.0
C      1  0.4568520000000  0.5128300000000  0.4656640000000 1.0
C      1  0.5422590000000  0.5112460000000  0.4649250000000 1.0
C      1  0.5455010000000  0.5090010000000  0.5767300000000 1.0
C      1  0.4547940000000  0.5088840000000  0.5768040000000 1.0
C      1  0.5301880000000  0.5189270000000  0.4859920000000 1.0
C      1  0.4697200000000  0.5194950000000  0.4864820000000 1.0
C      1  0.4806320000000  0.5514360000000  0.4369490000000 1.0
C      1  0.5168980000000  0.5503950000000  0.4387110000000 1.0
C      1  0.4783500000000  0.5003210000000  0.5256270000000 1.0
C      1  0.5215910000000  0.5002330000000  0.5255710000000 1.0
C      1  0.5410370000000  0.4788570000000  0.5257160000000 1.0
C      1  0.4589010000000  0.4789850000000  0.5256510000000 1.0
C      1  0.5075530000000  0.4770800000000  0.4739140000000 1.0
C      1  0.4920490000000  0.4770550000000  0.4737150000000 1.0
C      1  0.4666490000000  0.5357490000000  0.4663480000000 1.0
C      1  0.5331270000000  0.5343020000000  0.4651320000000 1.0
C      1  0.4858270000000  0.4785000000000  0.5373620000000 1.0
C      1  0.5140610000000  0.4784860000000  0.5373710000000 1.0
C      1  0.5326190000000  0.5671390000000  0.4872930000000 1.0
C      1  0.4674860000000  0.5680580000000  0.4883100000000 1.0
C      1  0.5069920000000  0.5365290000000  0.4686110000000 1.0
C      1  0.4930740000000  0.5364170000000  0.4690070000000 1.0
C      1  0.4864660000000  0.4725080000000  0.4977120000000 1.0
C      1  0.5133220000000  0.4724040000000  0.4978540000000 1.0
C      1  0.5158360000000  0.4455150000000  0.4542380000000 1.0
C      1  0.4847220000000  0.4451410000000  0.4532010000000 1.0
C      1  0.4575080000000  0.4329450000000  0.5383770000000 1.0
C      1  0.5423220000000  0.4329470000000  0.5384770000000 1.0
C      1  0.5391660000000  0.4309000000000  0.5142610000000 1.0
C      1  0.4607450000000  0.4309890000000  0.5143000000000 1.0
C      1  0.4697550000000  0.5197480000000  0.4710510000000 1.0
C      1  0.5298070000000  0.5187080000000  0.4704410000000 1.0
C      1  0.5636760000000  0.4620860000000  0.5281400000000 1.0
C      1  0.4362580000000  0.4622270000000  0.5279730000000 1.0
C      1  0.4695630000000  0.5496180000000  0.5077530000000 1.0
C      1  0.5304850000000  0.5493280000000  0.5073490000000 1.0
C      1  0.5163880000000  0.4985210000000  0.4879490000000 1.0
C      1  0.4833930000000  0.4987730000000  0.4880680000000 1.0
C      1  0.5598350000000  0.5299180000000  0.5229880000000 1.0
C      1  0.4400820000000  0.5302540000000  0.5234680000000 1.0
C      1  0.4866890000000  0.5270140000000  0.5397180000000 1.0
C      1  0.5134140000000  0.5268880000000  0.5396140000000 1.0
C      1  0.4465250000000  0.5121720000000  0.4779780000000 1.0
C      1  0.5529620000000  0.5114100000000  0.4775650000000 1.0
C      1  0.4499940000000  0.4854420000000  0.4380570000000 1.0
C      1  0.5519980000000  0.4854960000000  0.4388560000000 1.0
C      1  0.5077370000000  0.5462380000000  0.4913150000000 1.0
C      1  0.4924280000000  0.5464590000000  0.4914530000000 1.0
C      1  0.4508110000000  0.4669830000000  0.5583380000000 1.0
C      1  0.5491170000000  0.4669870000000  0.5583960000000 1.0
C      1  0.4637060000000  0.5467510000000  0.4296580000000 1.0
C      1  0.5343270000000  0.5480610000000  0.4300840000000 1.0
C      1  0.4269680000000  0.5537390000000  0.4848600000000 1.0
C      1  0.5729830000000  0.5530860000000  0.4841380000000 1.0
C      1  0.4588000000000  0.4510460000000  0.4500110000000 1.0
C      1  0.5411450000000  0.4522990000000  0.4505940000000 1.0
C      1  0.5080590000000  0.4551260000000  0.5532700000000 1.0
C      1  0.4918580000000  0.4551230000000  0.5532570000000 1.0
C      1  0.4178320000000  0.5037250000000  0.5190230000000 1.0
C      1  0.5822530000000  0.5035660000000  0.5189610000000 1.0
C      1  0.4851050000000  0.5124500000000  0.5197910000000 1.0
C      1  0.5148500000000  0.5123580000000  0.5196880000000 1.0
C      1  0.4526910000000  0.4840480000000  0.5729470000000 1.0
C      1  0.5473350000000  0.4841030000000  0.5729080000000 1.0
C      1  0.5090430000000  0.4554190000000  0.4295530000000 1.0
C      1  0.4945270000000  0.4553440000000  0.4289600000000 1.0
C      1  0.4916450000000  0.5739550000000  0.4332450000000 1.0
C      1  0.5044110000000  0.5732290000000  0.4356390000000 1.0
C      1  0.4659310000000  0.5237970000000  0.4214300000000 1.0
C      1  0.5342540000000  0.5268110000000  0.4208760000000 1.0
C      1  0.4399720000000  0.4997980000000  0.5603750000000 1.0
C      1  0.5600830000000  0.4997910000000  0.5602340000000 1.0
C      1  0.4691180000000  0.5038940000000  0.4918650000000 1.0
C      1  0.5306780000000  0.5034610000000  0.4916680000000 1.0
C      1  0.4415970000000  0.5049000000000  0.5060640000000 1.0
C      1  0.5582930000000  0.5046680000000  0.5058650000000 1.0
C      1  0.5554630000000  0.4749610000000  0.5046970000000 1.0
C      1  0.4444860000000  0.4752110000000  0.5045240000000 1.0
C      1  0.5063040000000  0.4247900000000  0.5426540000000 1.0
C      1  0.4935460000000  0.4247900000000  0.5426200000000 1.0
C      1  0.5073030000000  0.5276340000000  0.4324440000000 1.0
C      1  0.4915850000000  0.5280120000000  0.4326620000000 1.0
C      1  0.5073350000000  0.5425110000000  0.5060430000000 1.0
C      1  0.4928090000000  0.5427360000000  0.5061060000000 1.0
C      1  0.5511340000000  0.5216490000000  0.4893220000000 1.0
C      1  0.4483440000000  0.5221950000000  0.4899320000000 1.0
C      1  0.4914920000000  0.5146300000000  0.4222050000000 1.0
C      1  0.5067670000000  0.5151450000000  0.4228430000000 1.0
C      1  0.4926860000000  0.5079850000000  0.5868710000000 1.0
C      1  0.5073270000000  0.5079720000000  0.5868840000000 1.0
C      1  0.4941870000000  0.4967330000000  0.4051610000000 1.0
C      1  0.5080570000000  0.4972990000000  0.4059610000000 1.0
C      1  0.4864310000000  0.5049440000000  0.4320960000000 1.0
C      1  0.5108790000000  0.5046830000000  0.4323250000000 1.0
C      1  0.4586990000000  0.5148660000000  0.5322840000000 1.0
C      1  0.5412480000000  0.5147720000000  0.5321520000000 1.0
C      1  0.4850740000000  0.5065950000000  0.4105480000000 1.0
C      1  0.5154200000000  0.5077090000000  0.4129250000000 1.0
C      1  0.4567070000000  0.5674060000000  0.5428560000000 1.0
C      1  0.5435970000000  0.5672350000000  0.5420550000000 1.0
C      1  0.4843730000000  0.4937500000000  0.5380380000000 1.0
C      1  0.5155730000000  0.4937210000000  0.5380200000000 1.0
C      1  0.5264430000000  0.4373740000000  0.5164630000000 1.0
C      1  0.4735130000000  0.4373450000000  0.5164100000000 1.0
C      1  0.4763410000000  0.5678170000000  0.5523340000000 1.0
C      1  0.5240270000000  0.5677320000000  0.5517920000000 1.0
C      1  0.4381270000000  0.4529680000000  0.4748760000000 1.0
C      1  0.5622380000000  0.4525530000000  0.4750980000000 1.0
C      1  0.4572630000000  0.5561060000000  0.5523390000000 1.0
C      1  0.5430850000000  0.5560380000000  0.5516840000000 1.0
C      1  0.4226090000000  0.4831100000000  0.4723710000000 1.0
C      1  0.5779070000000  0.4827390000000  0.4727920000000 1.0
C      1  0.5148140000000  0.5334210000000  0.5162180000000 1.0
C      1  0.4851890000000  0.5335020000000  0.5163920000000 1.0
C      1  0.4920570000000  0.5245060000000  0.4599790000000 1.0
C      1  0.5077660000000  0.5243360000000  0.4598130000000 1.0
C      1  0.4484360000000  0.5460370000000  0.5467100000000 1.0
C      1  0.5518240000000  0.5459070000000  0.5460950000000 1.0
C      1  0.4850690000000  0.5622540000000  0.4291640000000 1.0
C      1  0.5112850000000  0.5614430000000  0.4320100000000 1.0
C      1  0.4851310000000  0.5518220000000  0.5382250000000 1.0
C      1  0.5150860000000  0.5516540000000  0.5380540000000 1.0
C      1  0.5336130000000  0.4796230000000  0.5121900000000 1.0
C      1  0.4662880000000  0.4798460000000  0.5120980000000 1.0
C      1  0.5173440000000  0.5473730000000  0.5154000000000 1.0
C      1  0.4828100000000  0.5474160000000  0.5155820000000 1.0
C      1  0.5418150000000  0.5767600000000  0.5101650000000 1.0
C      1  0.4584170000000  0.5773660000000  0.5112010000000 1.0
C      1  0.5352130000000  0.4773120000000  0.5763630000000 1.0
C      1  0.4647930000000  0.4772330000000  0.5763560000000 1.0
C      1  0.5347930000000  0.4814990000000  0.4222990000000 1.0
C      1  0.4674700000000  0.4787030000000  0.4200560000000 1.0
C      1  0.4907720000000  0.4669480000000  0.4623110000000 1.0
C      1  0.5084610000000  0.4670010000000  0.4626700000000 1.0
C      1  0.5075430000000  0.5246840000000  0.5264520000000 1.0
C      1  0.4924990000000  0.5247280000000  0.5265310000000 1.0
C      1  0.4931160000000  0.4257510000000  0.4684080000000 1.0
C      1  0.5073920000000  0.4256700000000  0.4684790000000 1.0
C      1  0.5841150000000  0.4670440000000  0.5053090000000 1.0
C      1  0.4159300000000  0.4672810000000  0.5049890000000 1.0
C      1  0.4395460000000  0.5121160000000  0.5538610000000 1.0
C      1  0.5605690000000  0.5120730000000  0.5536380000000 1.0
C      1  0.5315820000000  0.5286820000000  0.5713180000000 1.0
C      1  0.4686840000000  0.5286930000000  0.5715140000000 1.0
C      1  0.4400930000000  0.4635990000000  0.5507010000000 1.0
C      1  0.5598600000000  0.4635510000000  0.5508320000000 1.0
C      1  0.4881920000000  0.5612950000000  0.5490000000000 1.0
C      1  0.5120970000000  0.5612140000000  0.5487720000000 1.0
C      1  0.5075960000000  0.4622190000000  0.5742620000000 1.0
C      1  0.4923450000000  0.4622110000000  0.5742740000000 1.0
C      1  0.4220100000000  0.4542200000000  0.5083190000000 1.0
C      1  0.5780370000000  0.4539860000000  0.5086520000000 1.0
C      1  0.5177880000000  0.4607900000000  0.5048460000000 1.0
C      1  0.4820950000000  0.4608620000000  0.5047170000000 1.0
C      1  0.4850600000000  0.4900390000000  0.4751070000000 1.0
C      1  0.5148240000000  0.4899350000000  0.4749760000000 1.0
C      1  0.5092480000000  0.4728630000000  0.4128160000000 1.0
C      1  0.4949470000000  0.4723000000000  0.4119220000000 1.0
C      1  0.4300030000000  0.4811220000000  0.4601280000000 1.0
C      1  0.5706860000000  0.4806600000000  0.4605710000000 1.0
C      1  0.5400860000000  0.5221300000000  0.4441700000000 1.0
C      1  0.4599220000000  0.5243790000000  0.4471750000000 1.0
C      1  0.5426780000000  0.5208980000000  0.5691060000000 1.0
C      1  0.4576060000000  0.5208580000000  0.5693370000000 1.0
C      1  0.5254370000000  0.4869070000000  0.5790050000000 1.0
C      1  0.4745620000000  0.4868450000000  0.5790070000000 1.0
C      1  0.4706190000000  0.4666610000000  0.5674590000000 1.0
C      1  0.5293220000000  0.4667270000000  0.5675000000000 1.0
C      1  0.4925520000000  0.4445180000000  0.5185610000000 1.0
C      1  0.5073220000000  0.4444960000000  0.5186210000000 1.0
C      1  0.5359560000000  0.5248580000000  0.5235980000000 1.0
C      1  0.4640420000000  0.5250720000000  0.5238890000000 1.0
C      1  0.5616070000000  0.5304560000000  0.4948680000000 1.0
C      1  0.4380300000000  0.5311750000000  0.4952510000000 1.0
C      1  0.5391410000000  0.5288420000000  0.4911340000000 1.0
C      1  0.4605030000000  0.5292160000000  0.4916540000000 1.0
C      1  0.5530670000000  0.4949280000000  0.4491310000000 1.0
C      1  0.4471430000000  0.4954860000000  0.4480690000000 1.0
C      1  0.5666340000000  0.4754810000000  0.5478640000000 1.0
C      1  0.4333300000000  0.4755480000000  0.5477980000000 1.0
C      1  0.5530540000000  0.4726390000000  0.4454660000000 1.0
C      1  0.4482270000000  0.4726830000000  0.4449000000000 1.0
C      1  0.4749620000000  0.4691290000000  0.4271310000000 1.0
C      1  0.5272720000000  0.4724450000000  0.4301180000000 1.0
C      1  0.4237780000000  0.4510090000000  0.4939670000000 1.0
C      1  0.5763580000000  0.4507030000000  0.4943160000000 1.0
C      1  0.4921280000000  0.5108340000000  0.4831050000000 1.0
C      1  0.5076950000000  0.5106790000000  0.4830350000000 1.0
C      1  0.4800240000000  0.5097340000000  0.4439330000000 1.0
C      1  0.5188740000000  0.5085700000000  0.4436190000000 1.0
C      1  0.4881010000000  0.4834260000000  0.4063340000000 1.0
C      1  0.5152460000000  0.4847770000000  0.4075710000000 1.0
END
