TITL C-45663-7166-38 -51.6151539968696 1000000 -3576.05285572928 0 0 520 (T23) n - 1
REM
REM in /home/chem/mssmkc/work/GAP20/Larger-Clusters/Only-C240/New
REM
REM
REM
REM
REM
REM ./C.cell (28c9a5b7c779176d5635a9b681e7a0e1)
REM
REM compiler GCC version 8.3.0
REM options -cpp -mtune=generic -march=x86-64 -g -O0
REM seed 1964478465 -1347767238 1815970172 -2018657376 -1234440960 -1384202990 -1229796694 -2132329887 -1243090260 1448727685 724230849 -1664836246 -1161472117 -69053495 -1316037346 2091607969 -674700566 974474256 -675317061 1022159583 -773467795 2075570626 1892583603 787911691 1781899435 -834087403 441764723 1595056658 -454654181 -1104433960 -1960970536 1842521588 663118429
REM
CELL 1.54180  100.00000  100.00000  100.00000   90.00000   90.00000   90.00000
LATT -1
SFAC C  
C      1  0.5366520000000  0.5648160000000  0.4908060000000 1.0
C      1  0.5648410000000  0.4906810000000  0.5367550000000 1.0
C      1  0.4907040000000  0.5366280000000  0.5649420000000 1.0
C      1  0.4630940000000  0.5648160000000  0.5091420000000 1.0
C      1  0.4630950000000  0.4348810000000  0.4908070000000 1.0
C      1  0.5366520000000  0.4348810000000  0.5091450000000 1.0
C      1  0.4349060000000  0.4906790000000  0.4631950000000 1.0
C      1  0.4349050000000  0.5090180000000  0.5367530000000 1.0
C      1  0.5648420000000  0.5090160000000  0.4631970000000 1.0
C      1  0.5090430000000  0.5366260000000  0.4350070000000 1.0
C      1  0.5090410000000  0.4630710000000  0.5649430000000 1.0
C      1  0.4907060000000  0.4630690000000  0.4350080000000 1.0
C      1  0.5323070000000  0.4973400000000  0.4535230000000 1.0
C      1  0.4973660000000  0.4533970000000  0.5324090000000 1.0
C      1  0.4534210000000  0.5322820000000  0.4974660000000 1.0
C      1  0.4674400000000  0.4973420000000  0.5464270000000 1.0
C      1  0.4674410000000  0.5023550000000  0.4535220000000 1.0
C      1  0.5323060000000  0.5023570000000  0.5464280000000 1.0
C      1  0.5023810000000  0.4533950000000  0.4675430000000 1.0
C      1  0.5023800000000  0.5463020000000  0.5324070000000 1.0
C      1  0.4973670000000  0.5463000000000  0.4675410000000 1.0
C      1  0.5463260000000  0.5322820000000  0.5024820000000 1.0
C      1  0.5463260000000  0.4674150000000  0.4974690000000 1.0
C      1  0.4534210000000  0.4674150000000  0.5024820000000 1.0
C      1  0.4426860000000  0.4956960000000  0.5646550000000 1.0
C      1  0.4957210000000  0.5645290000000  0.4427870000000 1.0
C      1  0.5645550000000  0.4426620000000  0.4958230000000 1.0
C      1  0.5570610000000  0.4956940000000  0.4352950000000 1.0
C      1  0.5570590000000  0.5040030000000  0.5646570000000 1.0
C      1  0.4426880000000  0.5040010000000  0.4352930000000 1.0
C      1  0.5040260000000  0.5645310000000  0.5571600000000 1.0
C      1  0.5040280000000  0.4351660000000  0.4427900000000 1.0
C      1  0.4957190000000  0.4351680000000  0.5571620000000 1.0
C      1  0.4351920000000  0.4426620000000  0.5041290000000 1.0
C      1  0.4351920000000  0.5570350000000  0.4958190000000 1.0
C      1  0.5645550000000  0.5570350000000  0.5041290000000 1.0
C      1  0.5588730000000  0.4777670000000  0.4942790000000 1.0
C      1  0.4777910000000  0.4941520000000  0.5589740000000 1.0
C      1  0.4941770000000  0.5588480000000  0.4778920000000 1.0
C      1  0.4408740000000  0.4777670000000  0.5056710000000 1.0
C      1  0.4408740000000  0.5219300000000  0.4942770000000 1.0
C      1  0.5588730000000  0.5219300000000  0.5056730000000 1.0
C      1  0.5219560000000  0.4941500000000  0.4409760000000 1.0
C      1  0.5219540000000  0.5055470000000  0.5589750000000 1.0
C      1  0.4777930000000  0.5055450000000  0.4409750000000 1.0
C      1  0.5055700000000  0.5588480000000  0.5220560000000 1.0
C      1  0.5055710000000  0.4408490000000  0.4778940000000 1.0
C      1  0.4941760000000  0.4408490000000  0.5220570000000 1.0
C      1  0.5718340000000  0.5277340000000  0.5089970000000 1.0
C      1  0.5277580000000  0.5088710000000  0.5719360000000 1.0
C      1  0.5088950000000  0.5718100000000  0.5278590000000 1.0
C      1  0.4279120000000  0.5277340000000  0.4909520000000 1.0
C      1  0.4279120000000  0.4719630000000  0.5089960000000 1.0
C      1  0.5718350000000  0.4719630000000  0.4909550000000 1.0
C      1  0.4719890000000  0.5088690000000  0.4280130000000 1.0
C      1  0.4719870000000  0.4908280000000  0.5719360000000 1.0
C      1  0.5277600000000  0.4908260000000  0.4280140000000 1.0
C      1  0.4908520000000  0.5718090000000  0.4720880000000 1.0
C      1  0.4908520000000  0.4278880000000  0.5278610000000 1.0
C      1  0.5088960000000  0.4278870000000  0.4720910000000 1.0
C      1  0.4673460000000  0.5416040000000  0.5632240000000 1.0
C      1  0.5416280000000  0.5630980000000  0.4674480000000 1.0
C      1  0.5631230000000  0.4673220000000  0.5417310000000 1.0
C      1  0.5324010000000  0.5416020000000  0.4367240000000 1.0
C      1  0.5324000000000  0.4580950000000  0.5632270000000 1.0
C      1  0.4673480000000  0.4580930000000  0.4367250000000 1.0
C      1  0.4581180000000  0.5630990000000  0.5325000000000 1.0
C      1  0.4581200000000  0.4365980000000  0.4674480000000 1.0
C      1  0.5416280000000  0.4365990000000  0.5325040000000 1.0
C      1  0.4366240000000  0.4673210000000  0.4582200000000 1.0
C      1  0.4366220000000  0.5323760000000  0.5417280000000 1.0
C      1  0.5631250000000  0.5323750000000  0.4582210000000 1.0
C      1  0.4512690000000  0.5069380000000  0.5679970000000 1.0
C      1  0.5069630000000  0.5678700000000  0.4513710000000 1.0
C      1  0.5678960000000  0.4512460000000  0.5070650000000 1.0
C      1  0.5484780000000  0.5069360000000  0.4319530000000 1.0
C      1  0.5484750000000  0.4927610000000  0.5679990000000 1.0
C      1  0.4512720000000  0.4927590000000  0.4319510000000 1.0
C      1  0.4927840000000  0.5678720000000  0.5485770000000 1.0
C      1  0.4927860000000  0.4318250000000  0.4513730000000 1.0
C      1  0.5069610000000  0.4318260000000  0.5485790000000 1.0
C      1  0.4318510000000  0.4512450000000  0.4928860000000 1.0
C      1  0.4318510000000  0.5484520000000  0.5070620000000 1.0
C      1  0.5678960000000  0.5484510000000  0.4928870000000 1.0
C      1  0.4574210000000  0.4878310000000  0.5401230000000 1.0
C      1  0.4878560000000  0.5399960000000  0.4575220000000 1.0
C      1  0.5400220000000  0.4573960000000  0.4879580000000 1.0
C      1  0.5423260000000  0.4878300000000  0.4598280000000 1.0
C      1  0.5423250000000  0.5118670000000  0.5401230000000 1.0
C      1  0.4574220000000  0.5118660000000  0.4598260000000 1.0
C      1  0.5118910000000  0.5399970000000  0.5424260000000 1.0
C      1  0.5118920000000  0.4597000000000  0.4575240000000 1.0
C      1  0.4878550000000  0.4597010000000  0.5424270000000 1.0
C      1  0.4597250000000  0.4573970000000  0.5119930000000 1.0
C      1  0.4597260000000  0.5423000000000  0.4879550000000 1.0
C      1  0.5400210000000  0.5423010000000  0.5119930000000 1.0
C      1  0.5196380000000  0.5624700000000  0.4478020000000 1.0
C      1  0.5624950000000  0.4476770000000  0.5197400000000 1.0
C      1  0.4477000000000  0.5196130000000  0.5625960000000 1.0
C      1  0.4801090000000  0.5624710000000  0.5521460000000 1.0
C      1  0.4801110000000  0.4372260000000  0.4478040000000 1.0
C      1  0.5196360000000  0.4372270000000  0.5521480000000 1.0
C      1  0.4372520000000  0.4476760000000  0.4802110000000 1.0
C      1  0.4372510000000  0.5520210000000  0.5197360000000 1.0
C      1  0.5624960000000  0.5520200000000  0.4802120000000 1.0
C      1  0.5520460000000  0.5196110000000  0.4373530000000 1.0
C      1  0.5520440000000  0.4800860000000  0.5625980000000 1.0
C      1  0.4477030000000  0.4800840000000  0.4373520000000 1.0
C      1  0.4462970000000  0.4438900000000  0.4708120000000 1.0
C      1  0.4439160000000  0.4706840000000  0.4463980000000 1.0
C      1  0.4707110000000  0.4462700000000  0.4440180000000 1.0
C      1  0.5534500000000  0.4438910000000  0.5291400000000 1.0
C      1  0.5534510000000  0.5558060000000  0.4708120000000 1.0
C      1  0.4462960000000  0.5558070000000  0.5291370000000 1.0
C      1  0.5558310000000  0.4706860000000  0.5535530000000 1.0
C      1  0.5558320000000  0.5290110000000  0.4463980000000 1.0
C      1  0.4439150000000  0.5290130000000  0.5535510000000 1.0
C      1  0.5290360000000  0.4462720000000  0.5559340000000 1.0
C      1  0.5290380000000  0.5534250000000  0.4440170000000 1.0
C      1  0.4707090000000  0.5534270000000  0.5559320000000 1.0
C      1  0.4770100000000  0.4780410000000  0.5779870000000 1.0
C      1  0.4780650000000  0.5778600000000  0.4771110000000 1.0
C      1  0.5778860000000  0.4769860000000  0.4781680000000 1.0
C      1  0.5227380000000  0.4780380000000  0.4219630000000 1.0
C      1  0.5227350000000  0.5216590000000  0.5779870000000 1.0
C      1  0.4770120000000  0.5216560000000  0.4219620000000 1.0
C      1  0.5216820000000  0.5778610000000  0.5228370000000 1.0
C      1  0.5216830000000  0.4218360000000  0.4771140000000 1.0
C      1  0.4780640000000  0.4218370000000  0.5228390000000 1.0
C      1  0.4218610000000  0.4769860000000  0.5217830000000 1.0
C      1  0.4218620000000  0.5227110000000  0.4781640000000 1.0
C      1  0.5778850000000  0.5227120000000  0.5217850000000 1.0
C      1  0.5149400000000  0.4455360000000  0.4906070000000 1.0
C      1  0.4455610000000  0.4904790000000  0.5150410000000 1.0
C      1  0.4905050000000  0.5149140000000  0.4456620000000 1.0
C      1  0.4848070000000  0.4455360000000  0.5093450000000 1.0
C      1  0.4848070000000  0.5541600000000  0.4906040000000 1.0
C      1  0.5149400000000  0.5541610000000  0.5093440000000 1.0
C      1  0.5541860000000  0.4904790000000  0.4849090000000 1.0
C      1  0.5541850000000  0.5092180000000  0.5150420000000 1.0
C      1  0.4455610000000  0.5092180000000  0.4849070000000 1.0
C      1  0.5092420000000  0.5149160000000  0.5542870000000 1.0
C      1  0.5092440000000  0.4847810000000  0.4456630000000 1.0
C      1  0.4905030000000  0.4847830000000  0.5542870000000 1.0
C      1  0.4863740000000  0.4968650000000  0.5151430000000 1.0
C      1  0.4968900000000  0.5150170000000  0.4864760000000 1.0
C      1  0.5150420000000  0.4863490000000  0.4969910000000 1.0
C      1  0.5133730000000  0.4968640000000  0.4848070000000 1.0
C      1  0.5133720000000  0.5028330000000  0.5151440000000 1.0
C      1  0.4863750000000  0.5028320000000  0.4848060000000 1.0
C      1  0.5028570000000  0.5150170000000  0.5134740000000 1.0
C      1  0.5028580000000  0.4846800000000  0.4864760000000 1.0
C      1  0.4968890000000  0.4846800000000  0.5134740000000 1.0
C      1  0.4847050000000  0.4863490000000  0.5029590000000 1.0
C      1  0.4847050000000  0.5133480000000  0.4969900000000 1.0
C      1  0.5150420000000  0.5133480000000  0.5029590000000 1.0
C      1  0.5504760000000  0.5086800000000  0.4668390000000 1.0
C      1  0.5087050000000  0.4667130000000  0.5505770000000 1.0
C      1  0.4667370000000  0.5504500000000  0.5088060000000 1.0
C      1  0.4492710000000  0.5086810000000  0.5331110000000 1.0
C      1  0.4492720000000  0.4910160000000  0.4668380000000 1.0
C      1  0.5504750000000  0.4910170000000  0.5331130000000 1.0
C      1  0.4910420000000  0.4667110000000  0.4493740000000 1.0
C      1  0.4910400000000  0.5329860000000  0.5505760000000 1.0
C      1  0.5087060000000  0.5329840000000  0.4493730000000 1.0
C      1  0.5330100000000  0.5504500000000  0.4911420000000 1.0
C      1  0.5330100000000  0.4492470000000  0.5088090000000 1.0
C      1  0.4667370000000  0.4492470000000  0.4911430000000 1.0
C      1  0.4369930000000  0.5344350000000  0.4485520000000 1.0
C      1  0.5344630000000  0.4484260000000  0.4370950000000 1.0
C      1  0.4484520000000  0.4369680000000  0.5345630000000 1.0
C      1  0.5627540000000  0.5344370000000  0.5513960000000 1.0
C      1  0.5627560000000  0.4652600000000  0.4485560000000 1.0
C      1  0.4369910000000  0.4652610000000  0.5513960000000 1.0
C      1  0.4652850000000  0.4484290000000  0.5628570000000 1.0
C      1  0.4652870000000  0.5512680000000  0.4370920000000 1.0
C      1  0.5344600000000  0.5512710000000  0.5628560000000 1.0
C      1  0.5512950000000  0.4369670000000  0.4653890000000 1.0
C      1  0.5512940000000  0.5627310000000  0.5345630000000 1.0
C      1  0.4484530000000  0.5627290000000  0.4653850000000 1.0
C      1  0.4275970000000  0.4722710000000  0.5338270000000 1.0
C      1  0.4722970000000  0.5337000000000  0.4276980000000 1.0
C      1  0.5337270000000  0.4275720000000  0.4723990000000 1.0
C      1  0.5721500000000  0.4722700000000  0.4661240000000 1.0
C      1  0.5721480000000  0.5274270000000  0.5338290000000 1.0
C      1  0.4275980000000  0.5274260000000  0.4661200000000 1.0
C      1  0.5274500000000  0.5337030000000  0.5722500000000 1.0
C      1  0.5274530000000  0.4659940000000  0.4277000000000 1.0
C      1  0.4722950000000  0.4659970000000  0.5722510000000 1.0
C      1  0.4660200000000  0.4275730000000  0.5275530000000 1.0
C      1  0.4660210000000  0.5721240000000  0.4723950000000 1.0
C      1  0.5337260000000  0.5721250000000  0.5275520000000 1.0
C      1  0.5666910000000  0.5112950000000  0.5565450000000 1.0
C      1  0.5113180000000  0.5564190000000  0.5667920000000 1.0
C      1  0.5564430000000  0.5666670000000  0.5114200000000 1.0
C      1  0.4330560000000  0.5112930000000  0.4434040000000 1.0
C      1  0.4330550000000  0.4884040000000  0.5565430000000 1.0
C      1  0.5666920000000  0.4884020000000  0.4434070000000 1.0
C      1  0.4884290000000  0.5564170000000  0.4331560000000 1.0
C      1  0.4884270000000  0.4432800000000  0.5667940000000 1.0
C      1  0.5113200000000  0.4432780000000  0.4331580000000 1.0
C      1  0.4433040000000  0.5666660000000  0.4885280000000 1.0
C      1  0.4433040000000  0.4330310000000  0.5114200000000 1.0
C      1  0.5564430000000  0.4330300000000  0.4885320000000 1.0
C      1  0.5333210000000  0.4770920000000  0.5475180000000 1.0
C      1  0.4771160000000  0.5473920000000  0.5334220000000 1.0
C      1  0.5474160000000  0.5332960000000  0.4772180000000 1.0
C      1  0.4664260000000  0.4770900000000  0.4524320000000 1.0
C      1  0.4664250000000  0.5226070000000  0.5475170000000 1.0
C      1  0.5333220000000  0.5226050000000  0.4524320000000 1.0
C      1  0.5226310000000  0.5473910000000  0.4665270000000 1.0
C      1  0.5226300000000  0.4523060000000  0.5334240000000 1.0
C      1  0.4771170000000  0.4523050000000  0.4665270000000 1.0
C      1  0.4523300000000  0.5332970000000  0.5227310000000 1.0
C      1  0.4523310000000  0.4664000000000  0.4772170000000 1.0
C      1  0.5474160000000  0.4664010000000  0.5227340000000 1.0
C      1  0.5714440000000  0.5214660000000  0.4632660000000 1.0
C      1  0.5214900000000  0.4631400000000  0.5715460000000 1.0
C      1  0.4631640000000  0.5714190000000  0.5215910000000 1.0
C      1  0.4283030000000  0.5214670000000  0.5366830000000 1.0
C      1  0.4283040000000  0.4782300000000  0.4632650000000 1.0
C      1  0.5714430000000  0.4782310000000  0.5366860000000 1.0
C      1  0.4782570000000  0.4631380000000  0.4284050000000 1.0
C      1  0.4782540000000  0.5365590000000  0.5715440000000 1.0
C      1  0.5214930000000  0.5365570000000  0.4284050000000 1.0
C      1  0.5365830000000  0.5714180000000  0.4783560000000 1.0
C      1  0.5365830000000  0.4282790000000  0.5215950000000 1.0
C      1  0.4631650000000  0.4282780000000  0.4783580000000 1.0
C      1  0.4490880000000  0.5060110000000  0.4696360000000 1.0
C      1  0.5060380000000  0.4695090000000  0.4491900000000 1.0
C      1  0.4695350000000  0.4490630000000  0.5061390000000 1.0
C      1  0.5506590000000  0.5060120000000  0.5303140000000 1.0
C      1  0.5506600000000  0.4936850000000  0.4696380000000 1.0
C      1  0.4490870000000  0.4936860000000  0.5303120000000 1.0
C      1  0.4937090000000  0.4695110000000  0.5507610000000 1.0
C      1  0.4937110000000  0.5301860000000  0.4491890000000 1.0
C      1  0.5060360000000  0.5301880000000  0.5507600000000 1.0
C      1  0.5302120000000  0.4490630000000  0.4938130000000 1.0
C      1  0.5302120000000  0.5506340000000  0.5061380000000 1.0
C      1  0.4695350000000  0.5506340000000  0.4938100000000 1.0
C      1  0.4949000000000  0.4748940000000  0.4149010000000 1.0
C      1  0.4749210000000  0.4147740000000  0.4950010000000 1.0
C      1  0.4148000000000  0.4948730000000  0.4750210000000 1.0
C      1  0.5048470000000  0.4748970000000  0.5850500000000 1.0
C      1  0.5048500000000  0.5248000000000  0.4149000000000 1.0
C      1  0.4948970000000  0.5248030000000  0.5850490000000 1.0
C      1  0.5248260000000  0.4147740000000  0.5049520000000 1.0
C      1  0.5248260000000  0.5849230000000  0.4949990000000 1.0
C      1  0.4749210000000  0.5849230000000  0.5049480000000 1.0
C      1  0.5849470000000  0.4948740000000  0.5249290000000 1.0
C      1  0.5849480000000  0.5048230000000  0.4750240000000 1.0
C      1  0.4147990000000  0.5048240000000  0.5249260000000 1.0
C      1  0.4958280000000  0.5056670000000  0.5217300000000 1.0
C      1  0.5056910000000  0.5216040000000  0.4959300000000 1.0
C      1  0.5216290000000  0.4958030000000  0.5057930000000 1.0
C      1  0.5039190000000  0.5056660000000  0.4782190000000 1.0
C      1  0.5039180000000  0.4940310000000  0.5217310000000 1.0
C      1  0.4958290000000  0.4940300000000  0.4782190000000 1.0
C      1  0.4940560000000  0.5216040000000  0.5040200000000 1.0
C      1  0.4940560000000  0.4780930000000  0.4959300000000 1.0
C      1  0.5056910000000  0.4780930000000  0.5040210000000 1.0
C      1  0.4781180000000  0.4958030000000  0.4941570000000 1.0
C      1  0.4781180000000  0.5038940000000  0.5057920000000 1.0
C      1  0.5216290000000  0.5038940000000  0.4941570000000 1.0
C      1  0.4509440000000  0.4809320000000  0.4794200000000 1.0
C      1  0.4809580000000  0.4792930000000  0.4510450000000 1.0
C      1  0.4793190000000  0.4509180000000  0.4810590000000 1.0
C      1  0.5488030000000  0.4809330000000  0.5205310000000 1.0
C      1  0.5488040000000  0.5187640000000  0.4794200000000 1.0
C      1  0.4509430000000  0.5187650000000  0.5205290000000 1.0
C      1  0.5187890000000  0.4792940000000  0.5489050000000 1.0
C      1  0.5187910000000  0.5204030000000  0.4510450000000 1.0
C      1  0.4809560000000  0.5204040000000  0.5489040000000 1.0
C      1  0.5204280000000  0.4509190000000  0.5188920000000 1.0
C      1  0.5204290000000  0.5487780000000  0.4810580000000 1.0
C      1  0.4793180000000  0.5487790000000  0.5188900000000 1.0
C      1  0.5320360000000  0.5495000000000  0.5337760000000 1.0
C      1  0.5495240000000  0.5336500000000  0.5321380000000 1.0
C      1  0.5336740000000  0.5320120000000  0.5496260000000 1.0
C      1  0.4677110000000  0.5494990000000  0.4661730000000 1.0
C      1  0.4677100000000  0.4501980000000  0.5337760000000 1.0
C      1  0.5320370000000  0.4501970000000  0.4661750000000 1.0
C      1  0.4502230000000  0.5336490000000  0.4678110000000 1.0
C      1  0.4502220000000  0.4660480000000  0.5321370000000 1.0
C      1  0.5495250000000  0.4660470000000  0.4678140000000 1.0
C      1  0.4660730000000  0.5320100000000  0.4503230000000 1.0
C      1  0.4660720000000  0.4676870000000  0.5496260000000 1.0
C      1  0.5336750000000  0.4676850000000  0.4503250000000 1.0
C      1  0.5371090000000  0.5203340000000  0.5009520000000 1.0
C      1  0.5203580000000  0.5008260000000  0.5372110000000 1.0
C      1  0.5008500000000  0.5370840000000  0.5204600000000 1.0
C      1  0.4626380000000  0.5203340000000  0.4989970000000 1.0
C      1  0.4626380000000  0.4793630000000  0.5009510000000 1.0
C      1  0.5371090000000  0.4793630000000  0.4989990000000 1.0
C      1  0.4793890000000  0.5008240000000  0.4627390000000 1.0
C      1  0.4793870000000  0.4988730000000  0.5372100000000 1.0
C      1  0.5203600000000  0.4988710000000  0.4627400000000 1.0
C      1  0.4988970000000  0.5370840000000  0.4794890000000 1.0
C      1  0.4988970000000  0.4626130000000  0.5204610000000 1.0
C      1  0.5008500000000  0.4626130000000  0.4794900000000 1.0
C      1  0.5316170000000  0.5621090000000  0.5537540000000 1.0
C      1  0.5621320000000  0.5536280000000  0.5317190000000 1.0
C      1  0.5536520000000  0.5315940000000  0.5622350000000 1.0
C      1  0.4681300000000  0.5621070000000  0.4461940000000 1.0
C      1  0.4681290000000  0.4375900000000  0.5537550000000 1.0
C      1  0.5316190000000  0.4375880000000  0.4461970000000 1.0
C      1  0.4376140000000  0.5536270000000  0.4682290000000 1.0
C      1  0.4376140000000  0.4460700000000  0.5317190000000 1.0
C      1  0.5621340000000  0.4460690000000  0.4682330000000 1.0
C      1  0.4460950000000  0.5315920000000  0.4377140000000 1.0
C      1  0.4460930000000  0.4681050000000  0.5622340000000 1.0
C      1  0.5536540000000  0.4681030000000  0.4377170000000 1.0
C      1  0.5612490000000  0.5158690000000  0.4903100000000 1.0
C      1  0.5158930000000  0.4901840000000  0.5613500000000 1.0
C      1  0.4902070000000  0.5612240000000  0.5159950000000 1.0
C      1  0.4384980000000  0.5158690000000  0.5096390000000 1.0
C      1  0.4384990000000  0.4838270000000  0.4903090000000 1.0
C      1  0.5612480000000  0.4838280000000  0.5096420000000 1.0
C      1  0.4838540000000  0.4901820000000  0.4386000000000 1.0
C      1  0.4838520000000  0.5095150000000  0.5613500000000 1.0
C      1  0.5158950000000  0.5095130000000  0.4386000000000 1.0
C      1  0.5095390000000  0.5612230000000  0.4839530000000 1.0
C      1  0.5095390000000  0.4384740000000  0.5159970000000 1.0
C      1  0.4902080000000  0.4384730000000  0.4839550000000 1.0
C      1  0.4910600000000  0.5086330000000  0.4582070000000 1.0
C      1  0.5086580000000  0.4580810000000  0.4911620000000 1.0
C      1  0.4581060000000  0.4910350000000  0.5087590000000 1.0
C      1  0.5086870000000  0.5086340000000  0.5417420000000 1.0
C      1  0.5086880000000  0.4910630000000  0.4582080000000 1.0
C      1  0.4910590000000  0.4910640000000  0.5417420000000 1.0
C      1  0.4910890000000  0.4580810000000  0.5087890000000 1.0
C      1  0.4910890000000  0.5416160000000  0.4911600000000 1.0
C      1  0.5086580000000  0.5416160000000  0.5087880000000 1.0
C      1  0.5416410000000  0.4910350000000  0.4911910000000 1.0
C      1  0.5416410000000  0.5086630000000  0.5087600000000 1.0
C      1  0.4581060000000  0.5086620000000  0.4911890000000 1.0
C      1  0.5563720000000  0.4585740000000  0.5310480000000 1.0
C      1  0.4585980000000  0.5309210000000  0.5564720000000 1.0
C      1  0.5309460000000  0.5563460000000  0.4587000000000 1.0
C      1  0.4433760000000  0.4585730000000  0.4689030000000 1.0
C      1  0.4433750000000  0.5411240000000  0.5310450000000 1.0
C      1  0.5563720000000  0.5411230000000  0.4689040000000 1.0
C      1  0.5411490000000  0.5309190000000  0.4434770000000 1.0
C      1  0.5411480000000  0.4687780000000  0.5564750000000 1.0
C      1  0.4585990000000  0.4687760000000  0.4434760000000 1.0
C      1  0.4688010000000  0.5563470000000  0.5412490000000 1.0
C      1  0.4688030000000  0.4433490000000  0.4587000000000 1.0
C      1  0.5309450000000  0.4433510000000  0.5412510000000 1.0
C      1  0.5017560000000  0.4868380000000  0.5636600000000 1.0
C      1  0.4868610000000  0.5635340000000  0.5018570000000 1.0
C      1  0.5635590000000  0.5017320000000  0.4869640000000 1.0
C      1  0.4979910000000  0.4868350000000  0.4362900000000 1.0
C      1  0.4979890000000  0.5128620000000  0.5636600000000 1.0
C      1  0.5017580000000  0.5128590000000  0.4362900000000 1.0
C      1  0.5128850000000  0.5635340000000  0.4980910000000 1.0
C      1  0.5128860000000  0.4361630000000  0.5018600000000 1.0
C      1  0.4868620000000  0.4361630000000  0.4980920000000 1.0
C      1  0.4361880000000  0.5017320000000  0.5129860000000 1.0
C      1  0.4361880000000  0.4979650000000  0.4869620000000 1.0
C      1  0.5635590000000  0.4979650000000  0.5129880000000 1.0
C      1  0.4577610000000  0.4745360000000  0.5406420000000 1.0
C      1  0.4745610000000  0.5405150000000  0.4578620000000 1.0
C      1  0.5405410000000  0.4577360000000  0.4746630000000 1.0
C      1  0.5419860000000  0.4745340000000  0.4593090000000 1.0
C      1  0.5419850000000  0.5251630000000  0.5406420000000 1.0
C      1  0.4577620000000  0.5251610000000  0.4593070000000 1.0
C      1  0.5251860000000  0.5405160000000  0.5420870000000 1.0
C      1  0.5251880000000  0.4591810000000  0.4578640000000 1.0
C      1  0.4745590000000  0.4591820000000  0.5420870000000 1.0
C      1  0.4592060000000  0.4577370000000  0.5252880000000 1.0
C      1  0.4592070000000  0.5419600000000  0.4746600000000 1.0
C      1  0.5405400000000  0.5419610000000  0.5252880000000 1.0
C      1  0.4867370000000  0.4259280000000  0.4758890000000 1.0
C      1  0.4259530000000  0.4757620000000  0.4868370000000 1.0
C      1  0.4757880000000  0.4867100000000  0.4260540000000 1.0
C      1  0.5130100000000  0.4259280000000  0.5240630000000 1.0
C      1  0.5130110000000  0.5737690000000  0.4758870000000 1.0
C      1  0.4867360000000  0.5737690000000  0.5240600000000 1.0
C      1  0.5737940000000  0.4757620000000  0.5131130000000 1.0
C      1  0.5737940000000  0.5239350000000  0.4868390000000 1.0
C      1  0.4259530000000  0.5239350000000  0.5131100000000 1.0
C      1  0.5239590000000  0.4867130000000  0.5738960000000 1.0
C      1  0.5239610000000  0.5129840000000  0.4260550000000 1.0
C      1  0.4757860000000  0.5129860000000  0.5738950000000 1.0
C      1  0.4301730000000  0.5223550000000  0.4527340000000 1.0
C      1  0.5223820000000  0.4526080000000  0.4302750000000 1.0
C      1  0.4526340000000  0.4301480000000  0.5224830000000 1.0
C      1  0.5695740000000  0.5223570000000  0.5472150000000 1.0
C      1  0.5695760000000  0.4773400000000  0.4527370000000 1.0
C      1  0.4301710000000  0.4773420000000  0.5472130000000 1.0
C      1  0.4773650000000  0.4526100000000  0.5696770000000 1.0
C      1  0.4773670000000  0.5470860000000  0.4302720000000 1.0
C      1  0.5223800000000  0.5470890000000  0.5696760000000 1.0
C      1  0.5471130000000  0.4301470000000  0.4774690000000 1.0
C      1  0.5471120000000  0.5695500000000  0.5224820000000 1.0
C      1  0.4526350000000  0.5695490000000  0.4774660000000 1.0
C      1  0.4633510000000  0.4372260000000  0.5393150000000 1.0
C      1  0.4372510000000  0.5391880000000  0.4634510000000 1.0
C      1  0.5392150000000  0.4633250000000  0.4373540000000 1.0
C      1  0.5363970000000  0.4372250000000  0.4606370000000 1.0
C      1  0.5363950000000  0.5624720000000  0.5393140000000 1.0
C      1  0.4633520000000  0.5624700000000  0.4606330000000 1.0
C      1  0.5624960000000  0.5391890000000  0.5364980000000 1.0
C      1  0.5624970000000  0.4605080000000  0.4634540000000 1.0
C      1  0.4372500000000  0.4605090000000  0.5364970000000 1.0
C      1  0.4605330000000  0.4633270000000  0.5625980000000 1.0
C      1  0.4605350000000  0.5363700000000  0.4373510000000 1.0
C      1  0.5392120000000  0.5363720000000  0.5625980000000 1.0
C      1  0.5006600000000  0.5260220000000  0.4287060000000 1.0
C      1  0.5260480000000  0.4285800000000  0.5007620000000 1.0
C      1  0.4286040000000  0.5006340000000  0.5261480000000 1.0
C      1  0.4990870000000  0.5260240000000  0.5712440000000 1.0
C      1  0.4990900000000  0.4736730000000  0.4287060000000 1.0
C      1  0.5006580000000  0.4736760000000  0.5712440000000 1.0
C      1  0.4736990000000  0.4285790000000  0.4991910000000 1.0
C      1  0.4736990000000  0.5711170000000  0.5007580000000 1.0
C      1  0.5260480000000  0.5711180000000  0.4991890000000 1.0
C      1  0.5711430000000  0.5006330000000  0.4738020000000 1.0
C      1  0.5711420000000  0.4990640000000  0.5261500000000 1.0
C      1  0.4286050000000  0.4990630000000  0.4738000000000 1.0
C      1  0.5239130000000  0.4928310000000  0.4756180000000 1.0
C      1  0.4928560000000  0.4754920000000  0.5240150000000 1.0
C      1  0.4755170000000  0.5238880000000  0.4929570000000 1.0
C      1  0.4758340000000  0.4928320000000  0.5243320000000 1.0
C      1  0.4758350000000  0.5068650000000  0.4756170000000 1.0
C      1  0.5239120000000  0.5068660000000  0.5243320000000 1.0
C      1  0.5068910000000  0.4754910000000  0.4759360000000 1.0
C      1  0.5068900000000  0.5242060000000  0.5240140000000 1.0
C      1  0.4928570000000  0.5242050000000  0.4759350000000 1.0
C      1  0.5242300000000  0.5238880000000  0.5069920000000 1.0
C      1  0.5242310000000  0.4758090000000  0.4929590000000 1.0
C      1  0.4755160000000  0.4758090000000  0.5069920000000 1.0
C      1  0.5192490000000  0.4747850000000  0.5806840000000 1.0
C      1  0.4748080000000  0.5805570000000  0.5193500000000 1.0
C      1  0.5805820000000  0.5192250000000  0.4749110000000 1.0
C      1  0.4804980000000  0.4747820000000  0.4192660000000 1.0
C      1  0.4804950000000  0.5249150000000  0.5806830000000 1.0
C      1  0.5192520000000  0.5249120000000  0.4192660000000 1.0
C      1  0.5249390000000  0.5805570000000  0.4805970000000 1.0
C      1  0.5249380000000  0.4191400000000  0.5193540000000 1.0
C      1  0.4748090000000  0.4191400000000  0.4805990000000 1.0
C      1  0.4191640000000  0.5192260000000  0.5250380000000 1.0
C      1  0.4191650000000  0.4804710000000  0.4749090000000 1.0
C      1  0.5805820000000  0.4804720000000  0.5250420000000 1.0
C      1  0.4649390000000  0.4959960000000  0.4257740000000 1.0
C      1  0.4960230000000  0.4256470000000  0.4650410000000 1.0
C      1  0.4256730000000  0.4649130000000  0.4961230000000 1.0
C      1  0.5348080000000  0.4959980000000  0.5741760000000 1.0
C      1  0.5348100000000  0.5036990000000  0.4257740000000 1.0
C      1  0.4649370000000  0.5037010000000  0.5741750000000 1.0
C      1  0.5037250000000  0.4256480000000  0.5349120000000 1.0
C      1  0.5037260000000  0.5740490000000  0.4650380000000 1.0
C      1  0.4960210000000  0.5740500000000  0.5349090000000 1.0
C      1  0.5740740000000  0.4649130000000  0.5038280000000 1.0
C      1  0.5740740000000  0.5347840000000  0.4961240000000 1.0
C      1  0.4256720000000  0.5347840000000  0.5038250000000 1.0
C      1  0.5087360000000  0.4761000000000  0.4172520000000 1.0
C      1  0.4761270000000  0.4171250000000  0.5088370000000 1.0
C      1  0.4171500000000  0.5087090000000  0.4762260000000 1.0
C      1  0.4910110000000  0.4761030000000  0.5826990000000 1.0
C      1  0.4910130000000  0.5235940000000  0.4172510000000 1.0
C      1  0.5087340000000  0.5235970000000  0.5826980000000 1.0
C      1  0.5236210000000  0.4171250000000  0.4911150000000 1.0
C      1  0.5236200000000  0.5825720000000  0.5088350000000 1.0
C      1  0.4761270000000  0.5825720000000  0.4911120000000 1.0
C      1  0.5825970000000  0.5087110000000  0.5237230000000 1.0
C      1  0.5825970000000  0.4909870000000  0.4762290000000 1.0
C      1  0.4171500000000  0.4909870000000  0.5237210000000 1.0
C      1  0.5178960000000  0.4342410000000  0.4426120000000 1.0
C      1  0.4342670000000  0.4424840000000  0.5179960000000 1.0
C      1  0.4425100000000  0.5178690000000  0.4343680000000 1.0
C      1  0.4818510000000  0.4342430000000  0.5573410000000 1.0
C      1  0.4818530000000  0.5654530000000  0.4426090000000 1.0
C      1  0.5178940000000  0.5654560000000  0.5573390000000 1.0
C      1  0.5654800000000  0.4424840000000  0.4819550000000 1.0
C      1  0.5654790000000  0.5572140000000  0.5179970000000 1.0
C      1  0.4342680000000  0.5572130000000  0.4819510000000 1.0
C      1  0.5572370000000  0.5178710000000  0.5655820000000 1.0
C      1  0.5572390000000  0.4818260000000  0.4343700000000 1.0
C      1  0.4425080000000  0.4818280000000  0.5655800000000 1.0
C      1  0.4867920000000  0.4625680000000  0.4848730000000 1.0
C      1  0.4625940000000  0.4847460000000  0.4868930000000 1.0
C      1  0.4847720000000  0.4867660000000  0.4626950000000 1.0
C      1  0.5129550000000  0.4625690000000  0.5150780000000 1.0
C      1  0.5129560000000  0.5371280000000  0.4848720000000 1.0
C      1  0.4867910000000  0.5371290000000  0.5150770000000 1.0
C      1  0.5371530000000  0.4847460000000  0.5130580000000 1.0
C      1  0.5371540000000  0.5149510000000  0.4868930000000 1.0
C      1  0.4625930000000  0.5149510000000  0.5130560000000 1.0
C      1  0.5149750000000  0.4867670000000  0.5372560000000 1.0
C      1  0.5149760000000  0.5129300000000  0.4626950000000 1.0
C      1  0.4847700000000  0.5129310000000  0.5372550000000 1.0
C      1  0.5103950000000  0.5432050000000  0.4604310000000 1.0
C      1  0.5432300000000  0.4603060000000  0.5104980000000 1.0
C      1  0.4603300000000  0.5103700000000  0.5433310000000 1.0
C      1  0.4893520000000  0.5432060000000  0.5395170000000 1.0
C      1  0.4893530000000  0.4564910000000  0.4604320000000 1.0
C      1  0.5103940000000  0.4564920000000  0.5395190000000 1.0
C      1  0.4565170000000  0.4603050000000  0.4894540000000 1.0
C      1  0.4565160000000  0.5393920000000  0.5104950000000 1.0
C      1  0.5432300000000  0.5393910000000  0.4894540000000 1.0
C      1  0.5394170000000  0.5103690000000  0.4566190000000 1.0
C      1  0.5394160000000  0.4893280000000  0.5433330000000 1.0
C      1  0.4603310000000  0.4893260000000  0.4566180000000 1.0
C      1  0.4665920000000  0.5011030000000  0.5143430000000 1.0
C      1  0.5011280000000  0.5142170000000  0.4666930000000 1.0
C      1  0.5142430000000  0.4665670000000  0.5012300000000 1.0
C      1  0.5331550000000  0.5011020000000  0.4856060000000 1.0
C      1  0.5331550000000  0.4985950000000  0.5143450000000 1.0
C      1  0.4665920000000  0.4985940000000  0.4856050000000 1.0
C      1  0.4986190000000  0.5142180000000  0.5332560000000 1.0
C      1  0.4986200000000  0.4854790000000  0.4666940000000 1.0
C      1  0.5011270000000  0.4854800000000  0.5332570000000 1.0
C      1  0.4855040000000  0.4665670000000  0.4987210000000 1.0
C      1  0.4855040000000  0.5331300000000  0.5012280000000 1.0
C      1  0.5142430000000  0.5331300000000  0.4987210000000 1.0
C      1  0.4776630000000  0.5220590000000  0.4777640000000 1.0
C      1  0.4776630000000  0.4776380000000  0.5221860000000 1.0
C      1  0.5220840000000  0.4776380000000  0.4777650000000 1.0
C      1  0.5220840000000  0.5220590000000  0.5221850000000 1.0
END
