TITL C-45665-1466-70 -7.84077873910303 1000000 -1607.35840180661 0 0 240 (C1) n - 1
REM
REM in /home/chem/mssmkc/work/GAP20/Larger-Clusters/Only-C240/New
REM
REM
REM
REM
REM
REM ./C.cell (28c9a5b7c779176d5635a9b681e7a0e1)
REM
REM compiler GCC version 8.3.0
REM options -cpp -mtune=generic -march=x86-64 -g -O0
REM seed -1660002982 2051904624 1479892801 1268875661 530684726 1199208811 -915580021 -1033246820 -2045727076 -230060056 -1841556573 1658640153 -1038757292 -1733244839 -2002444009 507056471 -1365847963 1835963015 -1566003386 -418758674 1318752136 -1331861683 -263599212 1933338678 -1737415833 -255745352 870597965 444644742 1858893647 958899122 1186895740 603209363 26172596
REM
CELL 1.54180  100.00000  100.00000  100.00000   90.00000   90.00000   90.00000
LATT -1
SFAC C  
C      1  0.4627730000000  0.5122460000000  0.5072580000000 1.0
C      1  0.5087960000000  0.5034420000000  0.4617770000000 1.0
C      1  0.4990780000000  0.4529170000000  0.5032200000000 1.0
C      1  0.5372820000000  0.5110950000000  0.5004100000000 1.0
C      1  0.5404560000000  0.4966430000000  0.5010720000000 1.0
C      1  0.4591640000000  0.4994040000000  0.5047170000000 1.0
C      1  0.4977230000000  0.4918870000000  0.5458640000000 1.0
C      1  0.4969260000000  0.4976090000000  0.4564320000000 1.0
C      1  0.5109000000000  0.4922630000000  0.5409060000000 1.0
C      1  0.5007900000000  0.4537160000000  0.4908480000000 1.0
C      1  0.4998770000000  0.5424870000000  0.5101700000000 1.0
C      1  0.4989730000000  0.5413960000000  0.4955260000000 1.0
C      1  0.4718350000000  0.5312640000000  0.5553750000000 1.0
C      1  0.5253680000000  0.5507080000000  0.4747250000000 1.0
C      1  0.5520190000000  0.4743870000000  0.5267090000000 1.0
C      1  0.5237070000000  0.5278250000000  0.4454610000000 1.0
C      1  0.5282580000000  0.4668960000000  0.5541950000000 1.0
C      1  0.4723140000000  0.4694330000000  0.4470360000000 1.0
C      1  0.4691780000000  0.5560330000000  0.5279680000000 1.0
C      1  0.4678580000000  0.4451750000000  0.4745470000000 1.0
C      1  0.5307920000000  0.4441510000000  0.5255750000000 1.0
C      1  0.4449240000000  0.4732840000000  0.4707090000000 1.0
C      1  0.4451660000000  0.5280350000000  0.5306540000000 1.0
C      1  0.5501290000000  0.5233040000000  0.4707440000000 1.0
C      1  0.5183480000000  0.5267480000000  0.4969070000000 1.0
C      1  0.5262140000000  0.4924570000000  0.5222590000000 1.0
C      1  0.4951920000000  0.5305730000000  0.5311260000000 1.0
C      1  0.4782570000000  0.5299110000000  0.5124060000000 1.0
C      1  0.4733820000000  0.4782570000000  0.4869390000000 1.0
C      1  0.5252090000000  0.4773200000000  0.5028900000000 1.0
C      1  0.4780950000000  0.4953220000000  0.4703050000000 1.0
C      1  0.4777290000000  0.5126870000000  0.5296020000000 1.0
C      1  0.5213010000000  0.5082160000000  0.4815050000000 1.0
C      1  0.5023820000000  0.5240340000000  0.4774410000000 1.0
C      1  0.5105310000000  0.4730320000000  0.5225360000000 1.0
C      1  0.4925320000000  0.4753680000000  0.4714580000000 1.0
C      1  0.4898130000000  0.4882310000000  0.4656140000000 1.0
C      1  0.4846710000000  0.4713440000000  0.4823890000000 1.0
C      1  0.4716760000000  0.4909670000000  0.4812570000000 1.0
C      1  0.5154980000000  0.4851200000000  0.5286920000000 1.0
C      1  0.5097530000000  0.5122880000000  0.4737010000000 1.0
C      1  0.4878430000000  0.5198430000000  0.5351610000000 1.0
C      1  0.5145700000000  0.4713830000000  0.5095280000000 1.0
C      1  0.5065320000000  0.5304650000000  0.4900610000000 1.0
C      1  0.4902430000000  0.5358450000000  0.5179070000000 1.0
C      1  0.5308480000000  0.4891150000000  0.5091800000000 1.0
C      1  0.5252900000000  0.5148830000000  0.4932280000000 1.0
C      1  0.4725620000000  0.5177210000000  0.5171670000000 1.0
C      1  0.5135920000000  0.5423180000000  0.5151060000000 1.0
C      1  0.5418830000000  0.5206120000000  0.5084830000000 1.0
C      1  0.5209870000000  0.5021750000000  0.5430370000000 1.0
C      1  0.4910370000000  0.5482490000000  0.4866110000000 1.0
C      1  0.4976740000000  0.4527730000000  0.5165610000000 1.0
C      1  0.5034500000000  0.4545970000000  0.4780370000000 1.0
C      1  0.4610290000000  0.5230490000000  0.4983880000000 1.0
C      1  0.4569550000000  0.4864880000000  0.5035000000000 1.0
C      1  0.5483480000000  0.4887330000000  0.4928770000000 1.0
C      1  0.4854390000000  0.5055840000000  0.4506830000000 1.0
C      1  0.4847150000000  0.4938850000000  0.5454910000000 1.0
C      1  0.5214600000000  0.4969280000000  0.4609980000000 1.0
C      1  0.4514190000000  0.4771170000000  0.4594260000000 1.0
C      1  0.4738220000000  0.4572760000000  0.4526460000000 1.0
C      1  0.4557390000000  0.4509140000000  0.4769140000000 1.0
C      1  0.5454290000000  0.4778790000000  0.5380420000000 1.0
C      1  0.5452290000000  0.5227880000000  0.4580870000000 1.0
C      1  0.4505930000000  0.5245700000000  0.5425980000000 1.0
C      1  0.5257940000000  0.4551490000000  0.5480040000000 1.0
C      1  0.5203040000000  0.5390340000000  0.4524030000000 1.0
C      1  0.4740440000000  0.5433740000000  0.5497110000000 1.0
C      1  0.5411270000000  0.4518760000000  0.5214810000000 1.0
C      1  0.5354300000000  0.5428510000000  0.4793450000000 1.0
C      1  0.4585110000000  0.5490420000000  0.5236500000000 1.0
C      1  0.4748570000000  0.4473850000000  0.4613960000000 1.0
C      1  0.4458330000000  0.4599080000000  0.4772090000000 1.0
C      1  0.4601740000000  0.4779280000000  0.4493080000000 1.0
C      1  0.5246360000000  0.4454880000000  0.5389610000000 1.0
C      1  0.5189920000000  0.5487700000000  0.4613950000000 1.0
C      1  0.4759960000000  0.5531470000000  0.5409960000000 1.0
C      1  0.5501610000000  0.4614550000000  0.5197090000000 1.0
C      1  0.5461340000000  0.5350230000000  0.4794170000000 1.0
C      1  0.4487480000000  0.5401540000000  0.5227530000000 1.0
C      1  0.5390060000000  0.4763990000000  0.5495520000000 1.0
C      1  0.5369300000000  0.5210930000000  0.4477770000000 1.0
C      1  0.4590520000000  0.5237490000000  0.5529300000000 1.0
C      1  0.4760460000000  0.4382330000000  0.4835780000000 1.0
C      1  0.4374360000000  0.4824320000000  0.4781230000000 1.0
C      1  0.4820810000000  0.4749440000000  0.4390630000000 1.0
C      1  0.5238750000000  0.4353420000000  0.5171890000000 1.0
C      1  0.5200700000000  0.5613940000000  0.4818170000000 1.0
C      1  0.4756430000000  0.5649700000000  0.5196230000000 1.0
C      1  0.5611180000000  0.4828880000000  0.5205100000000 1.0
C      1  0.5571560000000  0.5136860000000  0.4779480000000 1.0
C      1  0.4368360000000  0.5195180000000  0.5231410000000 1.0
C      1  0.5193610000000  0.4726050000000  0.5632060000000 1.0
C      1  0.5152390000000  0.5197210000000  0.4376630000000 1.0
C      1  0.4811830000000  0.5237290000000  0.5623190000000 1.0
C      1  0.4587150000000  0.5123470000000  0.5609620000000 1.0
C      1  0.5088950000000  0.5580420000000  0.4591720000000 1.0
C      1  0.5583210000000  0.4603080000000  0.5085170000000 1.0
C      1  0.5387080000000  0.5090410000000  0.4408620000000 1.0
C      1  0.5391720000000  0.4876090000000  0.5578930000000 1.0
C      1  0.4596090000000  0.4881730000000  0.4396480000000 1.0
C      1  0.4887470000000  0.5591590000000  0.5408730000000 1.0
C      1  0.4861480000000  0.4394180000000  0.4599950000000 1.0
C      1  0.5133410000000  0.4373840000000  0.5402560000000 1.0
C      1  0.4382330000000  0.4602880000000  0.4890110000000 1.0
C      1  0.4425300000000  0.5403220000000  0.5102400000000 1.0
C      1  0.5549530000000  0.5362750000000  0.4901250000000 1.0
C      1  0.5040880000000  0.4382800000000  0.4363620000000 1.0
C      1  0.4422970000000  0.4416690000000  0.5116570000000 1.0
C      1  0.4405670000000  0.5097230000000  0.4378550000000 1.0
C      1  0.4927440000000  0.4404490000000  0.5614360000000 1.0
C      1  0.4861240000000  0.5546030000000  0.4404830000000 1.0
C      1  0.5114550000000  0.5588230000000  0.5591710000000 1.0
C      1  0.5553540000000  0.4431820000000  0.4848750000000 1.0
C      1  0.5585950000000  0.5599360000000  0.5074770000000 1.0
C      1  0.4418590000000  0.5608600000000  0.4884730000000 1.0
C      1  0.5601910000000  0.5078130000000  0.5614330000000 1.0
C      1  0.5630860000000  0.4911910000000  0.4427000000000 1.0
C      1  0.4381440000000  0.4911660000000  0.5598540000000 1.0
C      1  0.5230840000000  0.5352360000000  0.5077570000000 1.0
C      1  0.5312760000000  0.5019960000000  0.5318220000000 1.0
C      1  0.5068210000000  0.5360030000000  0.5365070000000 1.0
C      1  0.4702260000000  0.5344800000000  0.5014300000000 1.0
C      1  0.4625300000000  0.4751360000000  0.4958420000000 1.0
C      1  0.5320260000000  0.4723570000000  0.4918110000000 1.0
C      1  0.4744740000000  0.5046920000000  0.4602240000000 1.0
C      1  0.4747190000000  0.5011720000000  0.5377140000000 1.0
C      1  0.5288480000000  0.4984480000000  0.4744110000000 1.0
C      1  0.4929570000000  0.5313240000000  0.4703140000000 1.0
C      1  0.5026980000000  0.4618490000000  0.5272020000000 1.0
C      1  0.5019320000000  0.4652920000000  0.4676490000000 1.0
C      1  0.4612430000000  0.4823130000000  0.5525730000000 1.0
C      1  0.4791150000000  0.5515800000000  0.4648170000000 1.0
C      1  0.5526200000000  0.4679300000000  0.4787370000000 1.0
C      1  0.5426490000000  0.4838250000000  0.4566050000000 1.0
C      1  0.5379890000000  0.5183280000000  0.5530390000000 1.0
C      1  0.4647200000000  0.5188580000000  0.4392180000000 1.0
C      1  0.5226460000000  0.5551710000000  0.5359070000000 1.0
C      1  0.5170590000000  0.4449480000000  0.4577070000000 1.0
C      1  0.4832320000000  0.4466490000000  0.5384780000000 1.0
C      1  0.4507110000000  0.4648310000000  0.5179830000000 1.0
C      1  0.4538610000000  0.5395040000000  0.4804150000000 1.0
C      1  0.5474620000000  0.5397810000000  0.5195140000000 1.0
C      1  0.4899560000000  0.4230680000000  0.5156280000000 1.0
C      1  0.4333000000000  0.5147970000000  0.4884260000000 1.0
C      1  0.5160440000000  0.4827700000000  0.4344610000000 1.0
C      1  0.5105240000000  0.4249880000000  0.4836630000000 1.0
C      1  0.5085290000000  0.5782590000000  0.5126290000000 1.0
C      1  0.4884750000000  0.5804370000000  0.4830610000000 1.0
C      1  0.5697360000000  0.5131900000000  0.5128260000000 1.0
C      1  0.5821460000000  0.4849380000000  0.4900890000000 1.0
C      1  0.4270370000000  0.4873320000000  0.5115620000000 1.0
C      1  0.4842950000000  0.4889280000000  0.5752970000000 1.0
C      1  0.4865740000000  0.5043490000000  0.4183060000000 1.0
C      1  0.5127770000000  0.5065610000000  0.5716450000000 1.0
C      1  0.5387340000000  0.4987740000000  0.4344620000000 1.0
C      1  0.5039670000000  0.4300010000000  0.5384140000000 1.0
C      1  0.4365840000000  0.5376580000000  0.5001070000000 1.0
C      1  0.4609310000000  0.5031650000000  0.5686720000000 1.0
C      1  0.4626660000000  0.4946480000000  0.4297370000000 1.0
C      1  0.5365450000000  0.4956870000000  0.5663640000000 1.0
C      1  0.4951580000000  0.4317560000000  0.4622390000000 1.0
C      1  0.4984260000000  0.5629170000000  0.5344480000000 1.0
C      1  0.5003120000000  0.5665150000000  0.4601680000000 1.0
C      1  0.5642910000000  0.5353000000000  0.4976740000000 1.0
C      1  0.5670340000000  0.4621500000000  0.5002830000000 1.0
C      1  0.4325340000000  0.4641110000000  0.4990360000000 1.0
C      1  0.5668410000000  0.5220620000000  0.5224040000000 1.0
C      1  0.5185700000000  0.5183060000000  0.5695870000000 1.0
C      1  0.5196690000000  0.5744700000000  0.5188820000000 1.0
C      1  0.4391640000000  0.5207880000000  0.4788270000000 1.0
C      1  0.4320610000000  0.4798310000000  0.5205390000000 1.0
C      1  0.5748600000000  0.4789620000000  0.4806880000000 1.0
C      1  0.4791850000000  0.5153260000000  0.4183820000000 1.0
C      1  0.4758420000000  0.4786210000000  0.5736190000000 1.0
C      1  0.5253450000000  0.4769610000000  0.4414770000000 1.0
C      1  0.4797310000000  0.5729690000000  0.4765440000000 1.0
C      1  0.4799260000000  0.4255600000000  0.5240270000000 1.0
C      1  0.5201520000000  0.4250160000000  0.4742690000000 1.0
C      1  0.4896450000000  0.4929600000000  0.4230980000000 1.0
C      1  0.4987820000000  0.4279100000000  0.4878000000000 1.0
C      1  0.4279940000000  0.4940060000000  0.4995030000000 1.0
C      1  0.5104520000000  0.4940810000000  0.5717410000000 1.0
C      1  0.5124390000000  0.4950650000000  0.4325270000000 1.0
C      1  0.4863880000000  0.5013250000000  0.5730060000000 1.0
C      1  0.5020010000000  0.4238630000000  0.5116050000000 1.0
C      1  0.5007840000000  0.5772630000000  0.4849750000000 1.0
C      1  0.4959790000000  0.5767100000000  0.5110800000000 1.0
C      1  0.5781580000000  0.4872770000000  0.5020710000000 1.0
C      1  0.5671300000000  0.5094830000000  0.5007630000000 1.0
C      1  0.4301320000000  0.5086530000000  0.5002960000000 1.0
C      1  0.5095650000000  0.4543160000000  0.4655640000000 1.0
C      1  0.4567200000000  0.4724450000000  0.5075690000000 1.0
C      1  0.4727330000000  0.5117280000000  0.4488570000000 1.0
C      1  0.4925800000000  0.4534010000000  0.5298730000000 1.0
C      1  0.4878030000000  0.5437980000000  0.4735450000000 1.0
C      1  0.5154460000000  0.5440520000000  0.5298430000000 1.0
C      1  0.5444780000000  0.4760570000000  0.4879300000000 1.0
C      1  0.5368960000000  0.5327480000000  0.5120360000000 1.0
C      1  0.4624410000000  0.5338570000000  0.4902880000000 1.0
C      1  0.5322270000000  0.5102920000000  0.5426350000000 1.0
C      1  0.5346020000000  0.4934870000000  0.4630730000000 1.0
C      1  0.4699560000000  0.4913710000000  0.5456200000000 1.0
C      1  0.5549000000000  0.4867180000000  0.4512820000000 1.0
C      1  0.4865730000000  0.4453180000000  0.5516980000000 1.0
C      1  0.4492260000000  0.5523770000000  0.4826010000000 1.0
C      1  0.4481190000000  0.4855030000000  0.5547110000000 1.0
C      1  0.4512820000000  0.5161360000000  0.4390620000000 1.0
C      1  0.5506840000000  0.5148590000000  0.5572070000000 1.0
C      1  0.5120400000000  0.4421640000000  0.4452280000000 1.0
C      1  0.5187210000000  0.5562000000000  0.5492460000000 1.0
C      1  0.4810170000000  0.5504690000000  0.4512600000000 1.0
C      1  0.5525560000000  0.5515690000000  0.5147170000000 1.0
C      1  0.5517080000000  0.4543230000000  0.4802120000000 1.0
C      1  0.4487300000000  0.4514500000000  0.5161490000000 1.0
C      1  0.5119800000000  0.5705920000000  0.4846510000000 1.0
C      1  0.5701410000000  0.4861470000000  0.5124030000000 1.0
C      1  0.4857210000000  0.5135930000000  0.5681580000000 1.0
C      1  0.4839240000000  0.5716560000000  0.5129090000000 1.0
C      1  0.4862740000000  0.4323560000000  0.4876840000000 1.0
C      1  0.5142530000000  0.4287260000000  0.5128890000000 1.0
C      1  0.4315330000000  0.4882620000000  0.4872000000000 1.0
C      1  0.4318350000000  0.5140580000000  0.5133100000000 1.0
C      1  0.5629020000000  0.5095110000000  0.4884730000000 1.0
C      1  0.5128760000000  0.5078670000000  0.4340050000000 1.0
C      1  0.5127150000000  0.4812700000000  0.5693470000000 1.0
C      1  0.4874770000000  0.4825000000000  0.4307640000000 1.0
C      1  0.4708790000000  0.5198580000000  0.4267510000000 1.0
C      1  0.5209550000000  0.4338300000000  0.4651190000000 1.0
C      1  0.4412450000000  0.4720700000000  0.5256660000000 1.0
C      1  0.5286570000000  0.5213160000000  0.5625570000000 1.0
C      1  0.5344130000000  0.4739790000000  0.4499450000000 1.0
C      1  0.4678990000000  0.4772320000000  0.5638250000000 1.0
C      1  0.4786480000000  0.4349490000000  0.5324170000000 1.0
C      1  0.4739060000000  0.5635900000000  0.4704220000000 1.0
C      1  0.5237770000000  0.5663840000000  0.5277150000000 1.0
C      1  0.5648630000000  0.4739470000000  0.4746840000000 1.0
C      1  0.5573400000000  0.5305100000000  0.5226850000000 1.0
C      1  0.4468770000000  0.5296790000000  0.4734840000000 1.0
END
