TITL C-45665-1466-63 -0.0694325104607851 1000000 -3744.49255451722 0 0 520 (C1) n - 1
REM
REM in /home/chem/mssmkc/work/GAP20/Larger-Clusters/Only-C240/New
REM
REM
REM
REM
REM
REM ./C.cell (28c9a5b7c779176d5635a9b681e7a0e1)
REM
REM compiler GCC version 8.3.0
REM options -cpp -mtune=generic -march=x86-64 -g -O0
REM seed -54095739 -1417899192 1416414385 -281184319 -1305528516 -768485724 1242839386 -1599756893 832822856 -538279930 -638670193 -169456507 -416749628 -721706182 1981806070 1620714344 1863593384 1965246196 242574304 2139513071 2001456658 1700247755 -1958910310 -517651510 -1647597400 -472326484 -707055862 906975347 883224487 1345429906 1407660857 32402672 -1925689511
REM
CELL 1.54180  100.00000  100.00000  100.00000   90.00000   90.00000   90.00000
LATT -1
SFAC C  
C      1  0.4535630000000  0.5697250000000  0.5234530000000 1.0
C      1  0.5226000000000  0.4536060000000  0.5694070000000 1.0
C      1  0.5702610000000  0.5242340000000  0.4533520000000 1.0
C      1  0.5464990000000  0.5706100000000  0.4788760000000 1.0
C      1  0.4511930000000  0.4296800000000  0.4777820000000 1.0
C      1  0.5475780000000  0.4307500000000  0.5217990000000 1.0
C      1  0.4772790000000  0.4528410000000  0.4311070000000 1.0
C      1  0.5225420000000  0.5470530000000  0.4314950000000 1.0
C      1  0.4767170000000  0.5467840000000  0.5702030000000 1.0
C      1  0.4299580000000  0.5228600000000  0.5462420000000 1.0
C      1  0.5691740000000  0.4783880000000  0.5465480000000 1.0
C      1  0.4293490000000  0.4782520000000  0.4538980000000 1.0
C      1  0.5406240000000  0.4980460000000  0.5417800000000 1.0
C      1  0.5436390000000  0.5423040000000  0.5008180000000 1.0
C      1  0.5002560000000  0.5422530000000  0.5401580000000 1.0
C      1  0.4591220000000  0.5003840000000  0.4576980000000 1.0
C      1  0.5403360000000  0.5001850000000  0.4584890000000 1.0
C      1  0.4602650000000  0.4991460000000  0.5420810000000 1.0
C      1  0.4576950000000  0.5408950000000  0.4992270000000 1.0
C      1  0.5433980000000  0.4589060000000  0.5015370000000 1.0
C      1  0.4560900000000  0.4587000000000  0.4987450000000 1.0
C      1  0.5015230000000  0.5427710000000  0.4597420000000 1.0
C      1  0.4974250000000  0.4565520000000  0.4617780000000 1.0
C      1  0.5018170000000  0.4561910000000  0.5389350000000 1.0
C      1  0.4774400000000  0.5551080000000  0.5589590000000 1.0
C      1  0.5584480000000  0.4779860000000  0.5555240000000 1.0
C      1  0.5562200000000  0.5603450000000  0.4781260000000 1.0
C      1  0.5227700000000  0.5566460000000  0.4417180000000 1.0
C      1  0.4768370000000  0.4434970000000  0.4414130000000 1.0
C      1  0.5227330000000  0.4440530000000  0.5591980000000 1.0
C      1  0.4397100000000  0.4772550000000  0.4443980000000 1.0
C      1  0.5589670000000  0.5234910000000  0.4451780000000 1.0
C      1  0.4404790000000  0.5227770000000  0.5555040000000 1.0
C      1  0.4448320000000  0.5587710000000  0.5228260000000 1.0
C      1  0.5565670000000  0.4414770000000  0.5220420000000 1.0
C      1  0.4421030000000  0.4403630000000  0.4774790000000 1.0
C      1  0.5141350000000  0.4640060000000  0.4789960000000 1.0
C      1  0.4793130000000  0.5135690000000  0.4656430000000 1.0
C      1  0.4638320000000  0.4726640000000  0.5165370000000 1.0
C      1  0.4853940000000  0.4645000000000  0.5216960000000 1.0
C      1  0.5172100000000  0.5358220000000  0.5252400000000 1.0
C      1  0.4857800000000  0.5343610000000  0.4768740000000 1.0
C      1  0.5265700000000  0.5156100000000  0.5349390000000 1.0
C      1  0.4799790000000  0.4858560000000  0.5331940000000 1.0
C      1  0.5248350000000  0.4821080000000  0.4649020000000 1.0
C      1  0.5372990000000  0.4715580000000  0.4825280000000 1.0
C      1  0.4641540000000  0.5256000000000  0.4822770000000 1.0
C      1  0.5379960000000  0.5256720000000  0.5167770000000 1.0
C      1  0.4565720000000  0.4808880000000  0.5666160000000 1.0
C      1  0.5663610000000  0.4568830000000  0.4789000000000 1.0
C      1  0.4789040000000  0.5660190000000  0.4566400000000 1.0
C      1  0.5445440000000  0.4806770000000  0.4341490000000 1.0
C      1  0.4572740000000  0.5192680000000  0.4317950000000 1.0
C      1  0.5420150000000  0.5207240000000  0.5640270000000 1.0
C      1  0.4309940000000  0.4554100000000  0.5205670000000 1.0
C      1  0.5701230000000  0.5446660000000  0.5203870000000 1.0
C      1  0.4329840000000  0.5445070000000  0.4795900000000 1.0
C      1  0.5204050000000  0.5670820000000  0.5445720000000 1.0
C      1  0.4797880000000  0.4348720000000  0.5427240000000 1.0
C      1  0.5188190000000  0.4329590000000  0.4584090000000 1.0
C      1  0.5431230000000  0.5406730000000  0.4864140000000 1.0
C      1  0.4857880000000  0.5418910000000  0.5389120000000 1.0
C      1  0.5380480000000  0.4841300000000  0.5425980000000 1.0
C      1  0.4582650000000  0.5394400000000  0.5136580000000 1.0
C      1  0.5439500000000  0.4616830000000  0.5153980000000 1.0
C      1  0.4546340000000  0.4607620000000  0.4846500000000 1.0
C      1  0.5157380000000  0.5437740000000  0.4613610000000 1.0
C      1  0.4831130000000  0.4556700000000  0.4628260000000 1.0
C      1  0.5161090000000  0.4556820000000  0.5380350000000 1.0
C      1  0.4592480000000  0.4856940000000  0.4576260000000 1.0
C      1  0.5385440000000  0.5146520000000  0.4583030000000 1.0
C      1  0.4601400000000  0.5138260000000  0.5419500000000 1.0
C      1  0.4807320000000  0.4564280000000  0.5686130000000 1.0
C      1  0.5699090000000  0.4816040000000  0.4561130000000 1.0
C      1  0.4556420000000  0.5698360000000  0.4811360000000 1.0
C      1  0.5204820000000  0.4560250000000  0.4344060000000 1.0
C      1  0.4812170000000  0.5451690000000  0.4319530000000 1.0
C      1  0.5187670000000  0.5438470000000  0.5693740000000 1.0
C      1  0.4326590000000  0.4797820000000  0.5440840000000 1.0
C      1  0.5686060000000  0.5197070000000  0.5455080000000 1.0
C      1  0.4337690000000  0.5208440000000  0.4544030000000 1.0
C      1  0.5462940000000  0.5675200000000  0.5213350000000 1.0
C      1  0.4532840000000  0.4309490000000  0.5194040000000 1.0
C      1  0.5460010000000  0.4310800000000  0.4807080000000 1.0
C      1  0.4750640000000  0.4946240000000  0.5451600000000 1.0
C      1  0.5459630000000  0.4729880000000  0.4940110000000 1.0
C      1  0.4951480000000  0.5459830000000  0.4740700000000 1.0
C      1  0.5259570000000  0.4937830000000  0.4559480000000 1.0
C      1  0.4739080000000  0.5049250000000  0.4539490000000 1.0
C      1  0.5257540000000  0.5051720000000  0.5445610000000 1.0
C      1  0.4534990000000  0.4726790000000  0.5060510000000 1.0
C      1  0.5478620000000  0.5278330000000  0.5065540000000 1.0
C      1  0.4545640000000  0.5265520000000  0.4932470000000 1.0
C      1  0.5066370000000  0.5455080000000  0.5260130000000 1.0
C      1  0.4956400000000  0.4532780000000  0.5245180000000 1.0
C      1  0.5039320000000  0.4531290000000  0.4758680000000 1.0
C      1  0.5807060000000  0.5117040000000  0.5146180000000 1.0
C      1  0.5250200000000  0.5830350000000  0.5187820000000 1.0
C      1  0.5121330000000  0.5188140000000  0.5806870000000 1.0
C      1  0.4178580000000  0.5179280000000  0.4751410000000 1.0
C      1  0.5814150000000  0.4880260000000  0.4805060000000 1.0
C      1  0.4192410000000  0.4872540000000  0.5203010000000 1.0
C      1  0.4800620000000  0.5812500000000  0.4876570000000 1.0
C      1  0.5147480000000  0.4193670000000  0.4887600000000 1.0
C      1  0.4838640000000  0.4198200000000  0.5119510000000 1.0
C      1  0.4896120000000  0.5138990000000  0.4210920000000 1.0
C      1  0.5137090000000  0.4808500000000  0.4207720000000 1.0
C      1  0.4873070000000  0.4824230000000  0.5806120000000 1.0
C      1  0.4999190000000  0.5168650000000  0.4917150000000 1.0
C      1  0.4955850000000  0.4959290000000  0.5136860000000 1.0
C      1  0.5177470000000  0.4946410000000  0.4938720000000 1.0
C      1  0.5101030000000  0.5169250000000  0.5020770000000 1.0
C      1  0.4999490000000  0.4831400000000  0.5079840000000 1.0
C      1  0.5090400000000  0.4830230000000  0.4966720000000 1.0
C      1  0.5047480000000  0.4925010000000  0.4853360000000 1.0
C      1  0.4951370000000  0.5044940000000  0.4855020000000 1.0
C      1  0.5059700000000  0.5075380000000  0.5141170000000 1.0
C      1  0.4826580000000  0.4989170000000  0.5065800000000 1.0
C      1  0.5182700000000  0.5045430000000  0.5055860000000 1.0
C      1  0.4823800000000  0.5010910000000  0.4927500000000 1.0
C      1  0.5258200000000  0.5344060000000  0.5137420000000 1.0
C      1  0.5144460000000  0.5239540000000  0.5333190000000 1.0
C      1  0.5360400000000  0.5127970000000  0.5235220000000 1.0
C      1  0.4720260000000  0.5368230000000  0.4809070000000 1.0
C      1  0.5277600000000  0.4610770000000  0.4840890000000 1.0
C      1  0.4719340000000  0.4612050000000  0.5159250000000 1.0
C      1  0.4851030000000  0.5269360000000  0.4637300000000 1.0
C      1  0.5120460000000  0.4749050000000  0.4675880000000 1.0
C      1  0.4849840000000  0.4720620000000  0.5349300000000 1.0
C      1  0.4671820000000  0.5127920000000  0.4760580000000 1.0
C      1  0.5346930000000  0.4842650000000  0.4756500000000 1.0
C      1  0.4674810000000  0.4858400000000  0.5231710000000 1.0
C      1  0.5194430000000  0.5013010000000  0.4169210000000 1.0
C      1  0.4154410000000  0.5189280000000  0.5006750000000 1.0
C      1  0.5024020000000  0.4148060000000  0.5200430000000 1.0
C      1  0.4796720000000  0.5019230000000  0.5858080000000 1.0
C      1  0.5190960000000  0.4986940000000  0.5831210000000 1.0
C      1  0.4811930000000  0.4958720000000  0.4152570000000 1.0
C      1  0.5869670000000  0.5204730000000  0.4971310000000 1.0
C      1  0.4149010000000  0.4812680000000  0.5000760000000 1.0
C      1  0.5843480000000  0.4813770000000  0.5005730000000 1.0
C      1  0.4960910000000  0.4134630000000  0.4806040000000 1.0
C      1  0.5000540000000  0.5845790000000  0.4812640000000 1.0
C      1  0.4992820000000  0.5853190000000  0.5195160000000 1.0
C      1  0.5121610000000  0.4777560000000  0.4403850000000 1.0
C      1  0.4416650000000  0.5104660000000  0.4759130000000 1.0
C      1  0.4775010000000  0.4333080000000  0.5119060000000 1.0
C      1  0.4880070000000  0.4784900000000  0.5612910000000 1.0
C      1  0.5076460000000  0.5245590000000  0.5580110000000 1.0
C      1  0.4876770000000  0.5206060000000  0.4344140000000 1.0
C      1  0.5672530000000  0.5133490000000  0.5211690000000 1.0
C      1  0.4427370000000  0.4902890000000  0.5244040000000 1.0
C      1  0.5585410000000  0.4922990000000  0.4756100000000 1.0
C      1  0.5212430000000  0.4329370000000  0.4880350000000 1.0
C      1  0.4757030000000  0.5584270000000  0.4914190000000 1.0
C      1  0.5245540000000  0.5594790000000  0.5113410000000 1.0
C      1  0.4407070000000  0.4785520000000  0.5120810000000 1.0
C      1  0.5082400000000  0.4389510000000  0.4803450000000 1.0
C      1  0.4783290000000  0.5087250000000  0.4397380000000 1.0
C      1  0.5588940000000  0.4804990000000  0.4887130000000 1.0
C      1  0.4408110000000  0.5209350000000  0.4885160000000 1.0
C      1  0.5622310000000  0.5233820000000  0.5100450000000 1.0
C      1  0.4904260000000  0.4396660000000  0.5195280000000 1.0
C      1  0.5115990000000  0.5594360000000  0.5212720000000 1.0
C      1  0.4881860000000  0.5589230000000  0.4798390000000 1.0
C      1  0.5176860000000  0.5110510000000  0.5576770000000 1.0
C      1  0.4795280000000  0.4902640000000  0.5592910000000 1.0
C      1  0.5213200000000  0.4898950000000  0.4420980000000 1.0
C      1  0.5097420000000  0.4154970000000  0.4764040000000 1.0
C      1  0.4772890000000  0.5094160000000  0.4163430000000 1.0
C      1  0.4157630000000  0.4758400000000  0.5133240000000 1.0
C      1  0.4888910000000  0.4167050000000  0.5245660000000 1.0
C      1  0.5130850000000  0.5834250000000  0.5240440000000 1.0
C      1  0.4867850000000  0.5833860000000  0.4758170000000 1.0
C      1  0.5242610000000  0.5122190000000  0.5819280000000 1.0
C      1  0.4752410000000  0.4883870000000  0.5835720000000 1.0
C      1  0.5250800000000  0.4881220000000  0.4178940000000 1.0
C      1  0.5833930000000  0.4760380000000  0.4872100000000 1.0
C      1  0.4170260000000  0.5235620000000  0.4869080000000 1.0
C      1  0.5856510000000  0.5241900000000  0.5107170000000 1.0
C      1  0.5464750000000  0.4715290000000  0.5476130000000 1.0
C      1  0.5483350000000  0.5478060000000  0.4725270000000 1.0
C      1  0.4724190000000  0.5469530000000  0.5464310000000 1.0
C      1  0.4516700000000  0.4707130000000  0.4521370000000 1.0
C      1  0.5465080000000  0.5285940000000  0.4535000000000 1.0
C      1  0.4532240000000  0.5279620000000  0.5478560000000 1.0
C      1  0.4528970000000  0.5461950000000  0.5277430000000 1.0
C      1  0.5485580000000  0.4535560000000  0.5282290000000 1.0
C      1  0.4500050000000  0.4527250000000  0.4717480000000 1.0
C      1  0.5287310000000  0.5491510000000  0.4542120000000 1.0
C      1  0.4702820000000  0.4510560000000  0.4540860000000 1.0
C      1  0.5288470000000  0.4512510000000  0.5464220000000 1.0
C      1  0.5092150000000  0.5552040000000  0.4920050000000 1.0
C      1  0.4859180000000  0.5124760000000  0.5558950000000 1.0
C      1  0.5550530000000  0.4943570000000  0.5089710000000 1.0
C      1  0.4896410000000  0.5546430000000  0.5127910000000 1.0
C      1  0.5113210000000  0.4457110000000  0.5073190000000 1.0
C      1  0.4865070000000  0.4440360000000  0.4899600000000 1.0
C      1  0.5056620000000  0.5086020000000  0.4472490000000 1.0
C      1  0.4890130000000  0.4876790000000  0.4464840000000 1.0
C      1  0.5068650000000  0.4903460000000  0.5506830000000 1.0
C      1  0.4446680000000  0.4901620000000  0.4911940000000 1.0
C      1  0.5553790000000  0.5137050000000  0.4889950000000 1.0
C      1  0.4469300000000  0.5105960000000  0.5095490000000 1.0
C      1  0.5391340000000  0.5041030000000  0.4935440000000 1.0
C      1  0.4946820000000  0.5371250000000  0.5023060000000 1.0
C      1  0.5031040000000  0.4953380000000  0.5378020000000 1.0
C      1  0.4601740000000  0.5036260000000  0.5056450000000 1.0
C      1  0.5412690000000  0.4957770000000  0.5052130000000 1.0
C      1  0.4597030000000  0.4957740000000  0.4939500000000 1.0
C      1  0.5072090000000  0.5404840000000  0.4967470000000 1.0
C      1  0.4943120000000  0.4633590000000  0.4977170000000 1.0
C      1  0.5068960000000  0.4594990000000  0.5025700000000 1.0
C      1  0.4942940000000  0.4934270000000  0.4646210000000 1.0
C      1  0.5036260000000  0.5045140000000  0.4607850000000 1.0
C      1  0.4951330000000  0.5068620000000  0.5348510000000 1.0
C      1  0.4980840000000  0.4204810000000  0.5072960000000 1.0
C      1  0.5074510000000  0.4954710000000  0.4235850000000 1.0
C      1  0.4231470000000  0.5073110000000  0.5008830000000 1.0
C      1  0.5003840000000  0.4200960000000  0.4929670000000 1.0
C      1  0.4950100000000  0.5778750000000  0.4938750000000 1.0
C      1  0.4992180000000  0.5775160000000  0.5079130000000 1.0
C      1  0.4922080000000  0.4981090000000  0.5787700000000 1.0
C      1  0.5063040000000  0.5035880000000  0.5779580000000 1.0
C      1  0.4933660000000  0.4993120000000  0.4230220000000 1.0
C      1  0.5787930000000  0.5081530000000  0.4999670000000 1.0
C      1  0.4224530000000  0.4933220000000  0.5052140000000 1.0
C      1  0.5780120000000  0.4939620000000  0.4950910000000 1.0
C      1  0.4562110000000  0.5628610000000  0.4684350000000 1.0
C      1  0.4688850000000  0.4581410000000  0.5610710000000 1.0
C      1  0.5630500000000  0.4688800000000  0.4566360000000 1.0
C      1  0.5440310000000  0.5601560000000  0.5337520000000 1.0
C      1  0.4556520000000  0.4380060000000  0.5317580000000 1.0
C      1  0.5428650000000  0.4385040000000  0.4691740000000 1.0
C      1  0.5330600000000  0.4578250000000  0.4418280000000 1.0
C      1  0.4693780000000  0.5422460000000  0.4389190000000 1.0
C      1  0.5311450000000  0.5434950000000  0.5620600000000 1.0
C      1  0.4400440000000  0.4669370000000  0.5426040000000 1.0
C      1  0.5621170000000  0.5318140000000  0.5425930000000 1.0
C      1  0.4409160000000  0.5333980000000  0.4566360000000 1.0
C      1  0.4322910000000  0.4443160000000  0.5120080000000 1.0
C      1  0.5114150000000  0.4348560000000  0.4465530000000 1.0
C      1  0.4455840000000  0.5115220000000  0.4336520000000 1.0
C      1  0.5660500000000  0.4455570000000  0.4874310000000 1.0
C      1  0.4348740000000  0.5556740000000  0.4882460000000 1.0
C      1  0.5675820000000  0.5560770000000  0.5123790000000 1.0
C      1  0.4879710000000  0.4361070000000  0.5544600000000 1.0
C      1  0.5117910000000  0.5648550000000  0.5556620000000 1.0
C      1  0.4877560000000  0.5653870000000  0.4455840000000 1.0
C      1  0.5535720000000  0.5125700000000  0.5644790000000 1.0
C      1  0.4448550000000  0.4885010000000  0.5650300000000 1.0
C      1  0.5557830000000  0.4890770000000  0.4356340000000 1.0
C      1  0.4263720000000  0.5252080000000  0.5228140000000 1.0
C      1  0.5242300000000  0.4265020000000  0.5238060000000 1.0
C      1  0.5237910000000  0.5234700000000  0.4287980000000 1.0
C      1  0.5756700000000  0.5268580000000  0.4759010000000 1.0
C      1  0.4248330000000  0.4764670000000  0.4772830000000 1.0
C      1  0.5732060000000  0.4770290000000  0.5230460000000 1.0
C      1  0.4744620000000  0.4255510000000  0.4760800000000 1.0
C      1  0.5228230000000  0.5746670000000  0.4770660000000 1.0
C      1  0.4769060000000  0.5747330000000  0.5261100000000 1.0
C      1  0.4740160000000  0.5241680000000  0.5756340000000 1.0
C      1  0.5237770000000  0.4772270000000  0.5703680000000 1.0
C      1  0.4755410000000  0.4752510000000  0.4280770000000 1.0
C      1  0.4641700000000  0.5538480000000  0.5358520000000 1.0
C      1  0.5363700000000  0.4626680000000  0.5538630000000 1.0
C      1  0.5546880000000  0.5370710000000  0.4641880000000 1.0
C      1  0.5369110000000  0.5556680000000  0.4648580000000 1.0
C      1  0.4613740000000  0.4447480000000  0.4641740000000 1.0
C      1  0.5376630000000  0.4451480000000  0.5360720000000 1.0
C      1  0.4623440000000  0.4621490000000  0.4461200000000 1.0
C      1  0.5361460000000  0.5372900000000  0.4470240000000 1.0
C      1  0.4638830000000  0.5361880000000  0.5545490000000 1.0
C      1  0.4460120000000  0.5358460000000  0.5362770000000 1.0
C      1  0.5547570000000  0.4642010000000  0.5365430000000 1.0
C      1  0.4436840000000  0.4634420000000  0.4633770000000 1.0
C      1  0.5325500000000  0.4523350000000  0.4953160000000 1.0
C      1  0.4955690000000  0.5309290000000  0.4545400000000 1.0
C      1  0.4557030000000  0.4904770000000  0.5315490000000 1.0
C      1  0.4674810000000  0.4527670000000  0.5045930000000 1.0
C      1  0.5325850000000  0.5469170000000  0.5089620000000 1.0
C      1  0.4680120000000  0.5461970000000  0.4907090000000 1.0
C      1  0.5083270000000  0.5314980000000  0.5453320000000 1.0
C      1  0.4955650000000  0.4679460000000  0.5440750000000 1.0
C      1  0.5037990000000  0.4679920000000  0.4560120000000 1.0
C      1  0.5460130000000  0.4914540000000  0.4683250000000 1.0
C      1  0.4548580000000  0.5087940000000  0.4684010000000 1.0
C      1  0.5471290000000  0.5041620000000  0.5307350000000 1.0
C      1  0.5353590000000  0.5778680000000  0.4993930000000 1.0
C      1  0.4967860000000  0.5352120000000  0.5785710000000 1.0
C      1  0.5772650000000  0.4985250000000  0.5357960000000 1.0
C      1  0.4649290000000  0.5776090000000  0.5037480000000 1.0
C      1  0.5364660000000  0.4221110000000  0.5018770000000 1.0
C      1  0.4625420000000  0.4218580000000  0.4980990000000 1.0
C      1  0.5024870000000  0.5353240000000  0.4244090000000 1.0
C      1  0.4981290000000  0.4652480000000  0.4251120000000 1.0
C      1  0.5029260000000  0.4661400000000  0.5753770000000 1.0
C      1  0.4227000000000  0.4990430000000  0.4650540000000 1.0
C      1  0.5783320000000  0.5040770000000  0.4648210000000 1.0
C      1  0.4235400000000  0.5026400000000  0.5345530000000 1.0
C      1  0.4928730000000  0.5233250000000  0.5603310000000 1.0
C      1  0.5592780000000  0.4999600000000  0.5215790000000 1.0
C      1  0.5200980000000  0.5619590000000  0.4976420000000 1.0
C      1  0.5006300000000  0.5214750000000  0.4429250000000 1.0
C      1  0.4980400000000  0.4768150000000  0.4451220000000 1.0
C      1  0.5013390000000  0.4774570000000  0.5547430000000 1.0
C      1  0.4385640000000  0.4965710000000  0.4803150000000 1.0
C      1  0.5604250000000  0.5069420000000  0.4781630000000 1.0
C      1  0.4413150000000  0.5049090000000  0.5209130000000 1.0
C      1  0.4788790000000  0.5599460000000  0.5059960000000 1.0
C      1  0.5234850000000  0.4409570000000  0.5010090000000 1.0
C      1  0.4754670000000  0.4408760000000  0.4986330000000 1.0
C      1  0.4979420000000  0.4354330000000  0.4911980000000 1.0
C      1  0.4875040000000  0.4978700000000  0.4369130000000 1.0
C      1  0.4358430000000  0.4874720000000  0.5020900000000 1.0
C      1  0.5001980000000  0.4361350000000  0.5077920000000 1.0
C      1  0.5001280000000  0.5639060000000  0.5133800000000 1.0
C      1  0.4981430000000  0.5639430000000  0.4887750000000 1.0
C      1  0.5067770000000  0.5006760000000  0.5615530000000 1.0
C      1  0.4897310000000  0.5008380000000  0.5636020000000 1.0
C      1  0.5117240000000  0.4995110000000  0.4378610000000 1.0
C      1  0.5637180000000  0.4895140000000  0.4987900000000 1.0
C      1  0.4367150000000  0.5125350000000  0.4996350000000 1.0
C      1  0.5651040000000  0.5148080000000  0.4988810000000 1.0
C      1  0.5391990000000  0.4814910000000  0.5045370000000 1.0
C      1  0.5081710000000  0.5437680000000  0.4823930000000 1.0
C      1  0.4827190000000  0.5090520000000  0.5425440000000 1.0
C      1  0.4566290000000  0.4817250000000  0.4933150000000 1.0
C      1  0.5427220000000  0.5184280000000  0.4932890000000 1.0
C      1  0.4590500000000  0.5181910000000  0.5055740000000 1.0
C      1  0.4930030000000  0.5410790000000  0.5163860000000 1.0
C      1  0.5088350000000  0.4564610000000  0.5167580000000 1.0
C      1  0.4901270000000  0.4570080000000  0.4851160000000 1.0
C      1  0.5176020000000  0.5052210000000  0.4627030000000 1.0
C      1  0.4815190000000  0.4908110000000  0.4577250000000 1.0
C      1  0.5172380000000  0.4934670000000  0.5396870000000 1.0
C      1  0.5361590000000  0.4734860000000  0.5157650000000 1.0
C      1  0.5177390000000  0.5376830000000  0.4737440000000 1.0
C      1  0.4723160000000  0.5164330000000  0.5355580000000 1.0
C      1  0.4614770000000  0.4729000000000  0.4830830000000 1.0
C      1  0.5362060000000  0.5283910000000  0.4848210000000 1.0
C      1  0.4651840000000  0.5272290000000  0.5148510000000 1.0
C      1  0.4843520000000  0.5349610000000  0.5266550000000 1.0
C      1  0.5180580000000  0.4623240000000  0.5258680000000 1.0
C      1  0.4815440000000  0.4630700000000  0.4746390000000 1.0
C      1  0.5263330000000  0.5163270000000  0.4654540000000 1.0
C      1  0.4713570000000  0.4827200000000  0.4639580000000 1.0
C      1  0.5260850000000  0.4830910000000  0.5351070000000 1.0
C      1  0.5298490000000  0.4960170000000  0.4861130000000 1.0
C      1  0.4910060000000  0.5277570000000  0.4918640000000 1.0
C      1  0.4922950000000  0.4935200000000  0.5279890000000 1.0
C      1  0.4705720000000  0.4975730000000  0.5134230000000 1.0
C      1  0.5309810000000  0.5032930000000  0.5126450000000 1.0
C      1  0.4702350000000  0.5013900000000  0.4859520000000 1.0
C      1  0.5156730000000  0.5302860000000  0.5031230000000 1.0
C      1  0.4907600000000  0.4723960000000  0.5083240000000 1.0
C      1  0.5119350000000  0.4691030000000  0.4931380000000 1.0
C      1  0.5021040000000  0.4848300000000  0.4733760000000 1.0
C      1  0.4918840000000  0.5064200000000  0.4709590000000 1.0
C      1  0.5037990000000  0.5148810000000  0.5264300000000 1.0
C      1  0.5330430000000  0.4891670000000  0.4305280000000 1.0
C      1  0.4290070000000  0.5328930000000  0.4879210000000 1.0
C      1  0.4892070000000  0.4294950000000  0.5321090000000 1.0
C      1  0.4676480000000  0.4897640000000  0.5706960000000 1.0
C      1  0.5304430000000  0.5122030000000  0.5682700000000 1.0
C      1  0.4678890000000  0.5096400000000  0.4277750000000 1.0
C      1  0.5744520000000  0.5339550000000  0.5109970000000 1.0
C      1  0.4275960000000  0.4669840000000  0.5124190000000 1.0
C      1  0.5704020000000  0.4685090000000  0.4874000000000 1.0
C      1  0.5091110000000  0.4280740000000  0.4687610000000 1.0
C      1  0.4871790000000  0.5704930000000  0.4680820000000 1.0
C      1  0.5119790000000  0.5710590000000  0.5330870000000 1.0
C      1  0.5262170000000  0.4279390000000  0.5095020000000 1.0
C      1  0.5095570000000  0.5250910000000  0.4306800000000 1.0
C      1  0.4289430000000  0.5109640000000  0.5246710000000 1.0
C      1  0.4726090000000  0.4275930000000  0.4904010000000 1.0
C      1  0.5242130000000  0.5739430000000  0.4916210000000 1.0
C      1  0.4750890000000  0.5725480000000  0.5118290000000 1.0
C      1  0.4882240000000  0.5255320000000  0.5738490000000 1.0
C      1  0.5099730000000  0.4748650000000  0.5674410000000 1.0
C      1  0.4898050000000  0.4735010000000  0.4321910000000 1.0
C      1  0.5731740000000  0.5125190000000  0.4744110000000 1.0
C      1  0.4263990000000  0.4910250000000  0.4760180000000 1.0
C      1  0.5717990000000  0.4912910000000  0.5250770000000 1.0
C      1  0.5491030000000  0.4497210000000  0.4621390000000 1.0
C      1  0.4621020000000  0.5488410000000  0.4496540000000 1.0
C      1  0.4514710000000  0.4623770000000  0.5500060000000 1.0
C      1  0.4452920000000  0.4456730000000  0.5349460000000 1.0
C      1  0.5517050000000  0.5490510000000  0.5380740000000 1.0
C      1  0.4457530000000  0.5551480000000  0.4655150000000 1.0
C      1  0.5340510000000  0.5542580000000  0.5548170000000 1.0
C      1  0.4623610000000  0.4513960000000  0.5498500000000 1.0
C      1  0.5375040000000  0.4497730000000  0.4526430000000 1.0
C      1  0.5550400000000  0.4662990000000  0.4463270000000 1.0
C      1  0.4520290000000  0.5377050000000  0.4490760000000 1.0
C      1  0.5505020000000  0.5384010000000  0.5484810000000 1.0
C      1  0.4905300000000  0.4538460000000  0.4255380000000 1.0
C      1  0.4237000000000  0.4915770000000  0.4536430000000 1.0
C      1  0.4510170000000  0.4232640000000  0.4906980000000 1.0
C      1  0.5097090000000  0.4541920000000  0.5757340000000 1.0
C      1  0.4896110000000  0.5467700000000  0.5769650000000 1.0
C      1  0.5097230000000  0.5470300000000  0.4249760000000 1.0
C      1  0.5756990000000  0.4911560000000  0.5472450000000 1.0
C      1  0.4234870000000  0.5097990000000  0.5462110000000 1.0
C      1  0.5771260000000  0.5113530000000  0.4532990000000 1.0
C      1  0.5479750000000  0.4241550000000  0.5090680000000 1.0
C      1  0.4532060000000  0.5766440000000  0.5106950000000 1.0
C      1  0.5467370000000  0.5767310000000  0.4919680000000 1.0
C      1  0.4406070000000  0.4292700000000  0.4978670000000 1.0
C      1  0.4982350000000  0.4436710000000  0.4311780000000 1.0
C      1  0.4299750000000  0.4985830000000  0.4430660000000 1.0
C      1  0.5585190000000  0.4300840000000  0.5019140000000 1.0
C      1  0.4431370000000  0.5705730000000  0.5028990000000 1.0
C      1  0.5575420000000  0.5710010000000  0.4990710000000 1.0
C      1  0.5020990000000  0.4437960000000  0.5701850000000 1.0
C      1  0.4972910000000  0.5566490000000  0.5706530000000 1.0
C      1  0.5024710000000  0.5577680000000  0.4303650000000 1.0
C      1  0.5696160000000  0.4982550000000  0.5577240000000 1.0
C      1  0.4294610000000  0.5020180000000  0.5563540000000 1.0
C      1  0.5708590000000  0.5034820000000  0.4435410000000 1.0
C      1  0.5274290000000  0.4895720000000  0.5756900000000 1.0
C      1  0.5810330000000  0.5308190000000  0.4883180000000 1.0
C      1  0.4896570000000  0.5797590000000  0.5298330000000 1.0
C      1  0.4712970000000  0.4871130000000  0.4216510000000 1.0
C      1  0.5282730000000  0.5111240000000  0.4235170000000 1.0
C      1  0.4701490000000  0.5114290000000  0.5799490000000 1.0
C      1  0.4211020000000  0.5291050000000  0.5102210000000 1.0
C      1  0.5775820000000  0.4726470000000  0.5101720000000 1.0
C      1  0.4204870000000  0.4720300000000  0.4900630000000 1.0
C      1  0.5099150000000  0.5783880000000  0.4724580000000 1.0
C      1  0.4869440000000  0.4205980000000  0.4714400000000 1.0
C      1  0.5115750000000  0.4222530000000  0.5286790000000 1.0
C      1  0.4597880000000  0.5312040000000  0.4384260000000 1.0
C      1  0.4374710000000  0.4564480000000  0.5330420000000 1.0
C      1  0.5311440000000  0.4389960000000  0.4604990000000 1.0
C      1  0.5412200000000  0.5337950000000  0.5584650000000 1.0
C      1  0.4588030000000  0.4686890000000  0.5607640000000 1.0
C      1  0.5434700000000  0.4677640000000  0.4397160000000 1.0
C      1  0.5600830000000  0.4583350000000  0.4661120000000 1.0
C      1  0.4388240000000  0.5436500000000  0.4667680000000 1.0
C      1  0.5631620000000  0.5419390000000  0.5321430000000 1.0
C      1  0.4667140000000  0.4408900000000  0.5410080000000 1.0
C      1  0.5334160000000  0.5616620000000  0.5436330000000 1.0
C      1  0.4660510000000  0.5597450000000  0.4581760000000 1.0
C      1  0.4478490000000  0.4976220000000  0.4293690000000 1.0
C      1  0.4278990000000  0.4479070000000  0.4984860000000 1.0
C      1  0.4978360000000  0.4294700000000  0.4484030000000 1.0
C      1  0.5503550000000  0.4992370000000  0.5690480000000 1.0
C      1  0.4474840000000  0.5019950000000  0.5698950000000 1.0
C      1  0.5522630000000  0.5025270000000  0.4309770000000 1.0
C      1  0.5705520000000  0.4490580000000  0.5008440000000 1.0
C      1  0.4301990000000  0.5521700000000  0.5016170000000 1.0
C      1  0.5718800000000  0.5536450000000  0.4985640000000 1.0
C      1  0.5013540000000  0.4304950000000  0.5521410000000 1.0
C      1  0.4984750000000  0.5697770000000  0.5523770000000 1.0
C      1  0.5011350000000  0.5702910000000  0.4489940000000 1.0
C      1  0.5767660000000  0.5406170000000  0.4977720000000 1.0
C      1  0.4986530000000  0.5742640000000  0.5391510000000 1.0
C      1  0.5366860000000  0.4986360000000  0.5703600000000 1.0
C      1  0.4260620000000  0.5388020000000  0.5013350000000 1.0
C      1  0.5727020000000  0.4627500000000  0.5012190000000 1.0
C      1  0.4249420000000  0.4615550000000  0.4985710000000 1.0
C      1  0.5011380000000  0.5731210000000  0.4625490000000 1.0
C      1  0.4962840000000  0.4252790000000  0.4616240000000 1.0
C      1  0.5024880000000  0.4270020000000  0.5387240000000 1.0
C      1  0.4611310000000  0.4965040000000  0.4253010000000 1.0
C      1  0.5387470000000  0.5027430000000  0.4278800000000 1.0
C      1  0.4607800000000  0.5026580000000  0.5740670000000 1.0
C      1  0.5643110000000  0.5619880000000  0.4899740000000 1.0
C      1  0.4891850000000  0.5631500000000  0.5606880000000 1.0
C      1  0.5595370000000  0.4898540000000  0.5635850000000 1.0
C      1  0.4367990000000  0.5605060000000  0.5109710000000 1.0
C      1  0.5646670000000  0.4401500000000  0.5102470000000 1.0
C      1  0.4341730000000  0.4390750000000  0.4893780000000 1.0
C      1  0.5106870000000  0.5644110000000  0.4402100000000 1.0
C      1  0.4892700000000  0.4363840000000  0.4398260000000 1.0
C      1  0.5104530000000  0.4367030000000  0.5608920000000 1.0
C      1  0.4388570000000  0.4892880000000  0.4364860000000 1.0
C      1  0.5608050000000  0.5116460000000  0.4373130000000 1.0
C      1  0.4387480000000  0.5107200000000  0.5631510000000 1.0
C      1  0.5682050000000  0.5323770000000  0.4649820000000 1.0
C      1  0.4655120000000  0.5673370000000  0.5312300000000 1.0
C      1  0.5302870000000  0.4651650000000  0.5662990000000 1.0
C      1  0.4327900000000  0.5307300000000  0.5344840000000 1.0
C      1  0.5671870000000  0.4707460000000  0.5346710000000 1.0
C      1  0.4312620000000  0.4703260000000  0.4656540000000 1.0
C      1  0.5346250000000  0.5682210000000  0.4712990000000 1.0
C      1  0.4630400000000  0.4320520000000  0.4702410000000 1.0
C      1  0.5358540000000  0.4327530000000  0.5295760000000 1.0
C      1  0.4687330000000  0.4640850000000  0.4335890000000 1.0
C      1  0.5300650000000  0.5352590000000  0.4343960000000 1.0
C      1  0.4686400000000  0.5351340000000  0.5680170000000 1.0
C      1  0.4439190000000  0.5669140000000  0.4890490000000 1.0
C      1  0.4885710000000  0.4448280000000  0.5658170000000 1.0
C      1  0.5670490000000  0.4896550000000  0.4444550000000 1.0
C      1  0.5576450000000  0.5663990000000  0.5127780000000 1.0
C      1  0.4411950000000  0.4332170000000  0.5115900000000 1.0
C      1  0.5579610000000  0.4338220000000  0.4882150000000 1.0
C      1  0.5118390000000  0.4445190000000  0.4360870000000 1.0
C      1  0.4887790000000  0.5571020000000  0.4341760000000 1.0
C      1  0.5110160000000  0.5557210000000  0.5667370000000 1.0
C      1  0.4341750000000  0.4883690000000  0.5555810000000 1.0
C      1  0.5656440000000  0.5119300000000  0.5571190000000 1.0
C      1  0.4350060000000  0.5121580000000  0.4431950000000 1.0
C      1  0.4284760000000  0.4885500000000  0.5320570000000 1.0
C      1  0.5349540000000  0.4258780000000  0.4879550000000 1.0
C      1  0.4884940000000  0.5340160000000  0.4275650000000 1.0
C      1  0.5735730000000  0.4901650000000  0.4680170000000 1.0
C      1  0.4282250000000  0.5132700000000  0.4664450000000 1.0
C      1  0.5736610000000  0.5125160000000  0.5346100000000 1.0
C      1  0.4640880000000  0.4260980000000  0.5119860000000 1.0
C      1  0.5340010000000  0.5729710000000  0.5138630000000 1.0
C      1  0.4677000000000  0.5734090000000  0.4897230000000 1.0
C      1  0.5103130000000  0.5317950000000  0.5730400000000 1.0
C      1  0.4885680000000  0.4691120000000  0.5729840000000 1.0
C      1  0.5125670000000  0.4681050000000  0.4287760000000 1.0
C      1  0.5260580000000  0.5266180000000  0.4753680000000 1.0
C      1  0.4744060000000  0.5252770000000  0.5251190000000 1.0
C      1  0.5251250000000  0.4741940000000  0.5244710000000 1.0
C      1  0.4726240000000  0.4738690000000  0.4746810000000 1.0
END
