TITL C-526663-2196-11 -11.9389766949442 1000000 -1653.10851298141 0 0 240 (C2) n - 1
REM
REM in /scratch/bkarasulu/Only-C240
REM
REM
REM
REM
REM
REM ./C.cell (db1db5b03a21c153a00b653f6831bbfd)
REM
REM compiler GCC version 9.2.1 20190827 (Red Hat 9.2.1-1)
REM options -cpp -mtune=generic -march=x86-64 -g -O0 -fpre-include=/usr/include/finclude/math-vector-fortran.h
REM seed -1010652124 824257122 560746388 552068340 945466983 99855798 678818847 -1317094356 1825191779 -1178444904 669976000 1652270085 257147326 168001742 -1194806387 1080424082 2097186949 2134357376 -123641383 1175205729 1394570749 -596414904 160911753 633652797 -1465256259 -1945845676 -1232883271 -1677304322 1028545825 1445541080 -361202268 1214803214 167562485
REM
CELL 1.54180  100.00000  100.00000  100.00000   90.00000   90.00000   90.00000
LATT -1
SFAC C  
C      1  0.4422520000000  0.5010290000000  0.4574040000000 1.0
C      1  0.4422580000000  0.4989640000000  0.5426040000000 1.0
C      1  0.4939190000000  0.4653310000000  0.4216460000000 1.0
C      1  0.4939260000000  0.5346680000000  0.5783550000000 1.0
C      1  0.5250880000000  0.5568920000000  0.5526480000000 1.0
C      1  0.5250870000000  0.4431110000000  0.4473490000000 1.0
C      1  0.4778070000000  0.5126670000000  0.5701580000000 1.0
C      1  0.4777980000000  0.4873310000000  0.4298460000000 1.0
C      1  0.5504890000000  0.4681150000000  0.4535210000000 1.0
C      1  0.5504920000000  0.5318910000000  0.5464720000000 1.0
C      1  0.5343350000000  0.5536010000000  0.4562170000000 1.0
C      1  0.5343480000000  0.4464030000000  0.5437780000000 1.0
C      1  0.5486490000000  0.4927350000000  0.5515780000000 1.0
C      1  0.5486410000000  0.5072710000000  0.4484150000000 1.0
C      1  0.5413610000000  0.5573190000000  0.4675300000000 1.0
C      1  0.5413730000000  0.4426860000000  0.5324640000000 1.0
C      1  0.5258640000000  0.5483360000000  0.5164490000000 1.0
C      1  0.5258670000000  0.4516670000000  0.4835470000000 1.0
C      1  0.4626490000000  0.4730240000000  0.4934470000000 1.0
C      1  0.4626460000000  0.5269710000000  0.5065580000000 1.0
C      1  0.4701280000000  0.5772920000000  0.4894240000000 1.0
C      1  0.4701390000000  0.4227050000000  0.5105800000000 1.0
C      1  0.4384550000000  0.5339630000000  0.4904530000000 1.0
C      1  0.4384610000000  0.4660300000000  0.5095550000000 1.0
C      1  0.5041180000000  0.5144500000000  0.4584690000000 1.0
C      1  0.5041260000000  0.4855500000000  0.5415300000000 1.0
C      1  0.4644870000000  0.5609710000000  0.5095350000000 1.0
C      1  0.4644930000000  0.4390240000000  0.4904700000000 1.0
C      1  0.5343140000000  0.4350930000000  0.5228300000000 1.0
C      1  0.5343030000000  0.5649120000000  0.4771650000000 1.0
C      1  0.4759470000000  0.4770760000000  0.5515690000000 1.0
C      1  0.4759370000000  0.5229220000000  0.4484340000000 1.0
C      1  0.4458880000000  0.5031700000000  0.5290080000000 1.0
C      1  0.4458850000000  0.4968230000000  0.4710000000000 1.0
C      1  0.5590520000000  0.4424110000000  0.5172530000000 1.0
C      1  0.5590420000000  0.5575960000000  0.4827390000000 1.0
C      1  0.4931810000000  0.5445490000000  0.5077820000000 1.0
C      1  0.4931850000000  0.4554510000000  0.4922190000000 1.0
C      1  0.4747270000000  0.4117210000000  0.5040360000000 1.0
C      1  0.4747160000000  0.5882760000000  0.4959680000000 1.0
C      1  0.4633130000000  0.4968960000000  0.4151920000000 1.0
C      1  0.4633250000000  0.5030990000000  0.5848130000000 1.0
C      1  0.4513670000000  0.4995620000000  0.5526180000000 1.0
C      1  0.4513590000000  0.5004320000000  0.4473890000000 1.0
C      1  0.5017330000000  0.5042090000000  0.4483600000000 1.0
C      1  0.5017410000000  0.4957910000000  0.5516400000000 1.0
C      1  0.5492240000000  0.4616020000000  0.4862780000000 1.0
C      1  0.5492210000000  0.5384040000000  0.5137150000000 1.0
C      1  0.5561200000000  0.5310320000000  0.4552160000000 1.0
C      1  0.5561300000000  0.4689750000000  0.5447760000000 1.0
C      1  0.4927070000000  0.4586900000000  0.5607430000000 1.0
C      1  0.4926940000000  0.5413100000000  0.4392580000000 1.0
C      1  0.5479760000000  0.5359210000000  0.4444010000000 1.0
C      1  0.5479880000000  0.4640850000000  0.5555930000000 1.0
C      1  0.5236860000000  0.4894750000000  0.5604320000000 1.0
C      1  0.5236760000000  0.5105280000000  0.4395650000000 1.0
C      1  0.5578350000000  0.5164430000000  0.4554890000000 1.0
C      1  0.5578430000000  0.4835640000000  0.5445030000000 1.0
C      1  0.5366470000000  0.5526950000000  0.5497970000000 1.0
C      1  0.5366460000000  0.4473090000000  0.4501970000000 1.0
C      1  0.4814730000000  0.4642110000000  0.5553220000000 1.0
C      1  0.4814610000000  0.5357860000000  0.4446810000000 1.0
C      1  0.4783400000000  0.5733880000000  0.4393720000000 1.0
C      1  0.4783570000000  0.4266100000000  0.5606310000000 1.0
C      1  0.4673860000000  0.4357550000000  0.5041120000000 1.0
C      1  0.4673770000000  0.5642410000000  0.4958930000000 1.0
C      1  0.4986400000000  0.4662060000000  0.4690570000000 1.0
C      1  0.4986400000000  0.5337940000000  0.5309430000000 1.0
C      1  0.4714180000000  0.4343740000000  0.5507470000000 1.0
C      1  0.4714030000000  0.5656220000000  0.4492570000000 1.0
C      1  0.5173220000000  0.4105280000000  0.4871620000000 1.0
C      1  0.5173130000000  0.5894740000000  0.5128350000000 1.0
C      1  0.5280250000000  0.4539170000000  0.5644960000000 1.0
C      1  0.5280100000000  0.5460860000000  0.4355000000000 1.0
C      1  0.4308830000000  0.5087970000000  0.4582190000000 1.0
C      1  0.4308900000000  0.4911950000000  0.5417910000000 1.0
C      1  0.4305650000000  0.4630090000000  0.4708770000000 1.0
C      1  0.4305650000000  0.5369830000000  0.5291330000000 1.0
C      1  0.5596290000000  0.4671480000000  0.4902860000000 1.0
C      1  0.5596260000000  0.5328590000000  0.5097060000000 1.0
C      1  0.5508250000000  0.4813550000000  0.4528720000000 1.0
C      1  0.5508300000000  0.5186510000000  0.5471210000000 1.0
C      1  0.4705410000000  0.4631670000000  0.4865170000000 1.0
C      1  0.4705390000000  0.5368290000000  0.5134870000000 1.0
C      1  0.4706770000000  0.4921640000000  0.5357150000000 1.0
C      1  0.4706710000000  0.5078320000000  0.4642890000000 1.0
C      1  0.5033710000000  0.5476380000000  0.4381030000000 1.0
C      1  0.5033860000000  0.4523620000000  0.5618960000000 1.0
C      1  0.5055180000000  0.4355570000000  0.5047880000000 1.0
C      1  0.5055100000000  0.5644440000000  0.4952110000000 1.0
C      1  0.4730950000000  0.5410080000000  0.4913040000000 1.0
C      1  0.4731010000000  0.4589890000000  0.5087000000000 1.0
C      1  0.5377680000000  0.4556850000000  0.4839990000000 1.0
C      1  0.5377650000000  0.5443190000000  0.5159960000000 1.0
C      1  0.5494820000000  0.5064150000000  0.5488960000000 1.0
C      1  0.5494750000000  0.4935910000000  0.4510970000000 1.0
C      1  0.5055830000000  0.4048220000000  0.4866270000000 1.0
C      1  0.5055730000000  0.5951790000000  0.5133720000000 1.0
C      1  0.4510350000000  0.5016630000000  0.5067300000000 1.0
C      1  0.4510340000000  0.4983310000000  0.4932770000000 1.0
C      1  0.5127810000000  0.4746140000000  0.5451050000000 1.0
C      1  0.5127720000000  0.5253880000000  0.4548930000000 1.0
C      1  0.5130690000000  0.4986840000000  0.5608940000000 1.0
C      1  0.5130600000000  0.5013180000000  0.4391040000000 1.0
C      1  0.5200550000000  0.4505830000000  0.5439370000000 1.0
C      1  0.5200430000000  0.5494190000000  0.4560610000000 1.0
C      1  0.5159600000000  0.4493030000000  0.5583550000000 1.0
C      1  0.5159450000000  0.5506990000000  0.4416420000000 1.0
C      1  0.5747040000000  0.4942250000000  0.4826160000000 1.0
C      1  0.5747050000000  0.5057840000000  0.5173740000000 1.0
C      1  0.5715960000000  0.5022940000000  0.4724530000000 1.0
C      1  0.5716000000000  0.4977150000000  0.5275370000000 1.0
C      1  0.5707160000000  0.4698300000000  0.5110660000000 1.0
C      1  0.5707110000000  0.5301790000000  0.4889240000000 1.0
C      1  0.4934420000000  0.4026880000000  0.4897870000000 1.0
C      1  0.4934310000000  0.5973120000000  0.5102140000000 1.0
C      1  0.5182990000000  0.4763960000000  0.5586890000000 1.0
C      1  0.5182880000000  0.5236060000000  0.4413080000000 1.0
C      1  0.5162760000000  0.4297270000000  0.5105950000000 1.0
C      1  0.5162660000000  0.5702750000000  0.4894030000000 1.0
C      1  0.4225490000000  0.4761610000000  0.5243480000000 1.0
C      1  0.4225430000000  0.5238290000000  0.4756630000000 1.0
C      1  0.5011880000000  0.5408740000000  0.5195320000000 1.0
C      1  0.5011900000000  0.4591260000000  0.4804680000000 1.0
C      1  0.4717020000000  0.4390340000000  0.5270760000000 1.0
C      1  0.4716910000000  0.5609620000000  0.4729280000000 1.0
C      1  0.5396270000000  0.4316600000000  0.5098260000000 1.0
C      1  0.5396170000000  0.5683450000000  0.4901680000000 1.0
C      1  0.4670820000000  0.5032510000000  0.5709060000000 1.0
C      1  0.4670720000000  0.4967450000000  0.4290990000000 1.0
C      1  0.5276460000000  0.5321360000000  0.4344130000000 1.0
C      1  0.5276590000000  0.4678670000000  0.5655830000000 1.0
C      1  0.5676310000000  0.5344280000000  0.4777860000000 1.0
C      1  0.5676390000000  0.4655800000000  0.5222050000000 1.0
C      1  0.4856740000000  0.4861100000000  0.4412890000000 1.0
C      1  0.4856800000000  0.5138880000000  0.5587130000000 1.0
C      1  0.5383550000000  0.5127160000000  0.4403450000000 1.0
C      1  0.5383650000000  0.4872880000000  0.5596500000000 1.0
C      1  0.4725270000000  0.4576560000000  0.5449350000000 1.0
C      1  0.4725150000000  0.5423410000000  0.4550690000000 1.0
C      1  0.4713600000000  0.5106440000000  0.5920920000000 1.0
C      1  0.4713480000000  0.4893520000000  0.4079120000000 1.0
C      1  0.4624820000000  0.4681870000000  0.5065750000000 1.0
C      1  0.4624770000000  0.5318080000000  0.4934300000000 1.0
C      1  0.5032570000000  0.4528550000000  0.4394800000000 1.0
C      1  0.5032600000000  0.5471450000000  0.5605200000000 1.0
C      1  0.5052410000000  0.4856690000000  0.4196580000000 1.0
C      1  0.5052510000000  0.5143310000000  0.5803420000000 1.0
C      1  0.4507910000000  0.5300090000000  0.4857800000000 1.0
C      1  0.4507970000000  0.4699850000000  0.5142270000000 1.0
C      1  0.4922720000000  0.4740520000000  0.4449680000000 1.0
C      1  0.4922770000000  0.5259470000000  0.5550330000000 1.0
C      1  0.4660630000000  0.5499330000000  0.5153250000000 1.0
C      1  0.4660670000000  0.4500630000000  0.4846800000000 1.0
C      1  0.4705930000000  0.4458720000000  0.5138660000000 1.0
C      1  0.4705850000000  0.5541240000000  0.4861380000000 1.0
C      1  0.5038070000000  0.4457840000000  0.4964340000000 1.0
C      1  0.5038010000000  0.5542160000000  0.5035650000000 1.0
C      1  0.4631490000000  0.4978370000000  0.5584260000000 1.0
C      1  0.4631400000000  0.5021590000000  0.4415790000000 1.0
C      1  0.4811250000000  0.4835040000000  0.4163630000000 1.0
C      1  0.4811340000000  0.5164930000000  0.5836400000000 1.0
C      1  0.4826150000000  0.4054960000000  0.4965880000000 1.0
C      1  0.4826040000000  0.5945020000000  0.5034150000000 1.0
C      1  0.5154890000000  0.5372590000000  0.4609850000000 1.0
C      1  0.5154990000000  0.4627430000000  0.5390130000000 1.0
C      1  0.4719830000000  0.4440220000000  0.5405640000000 1.0
C      1  0.4719710000000  0.5559740000000  0.4594400000000 1.0
C      1  0.4762240000000  0.4923140000000  0.5496630000000 1.0
C      1  0.4762160000000  0.5076830000000  0.4503400000000 1.0
C      1  0.4461420000000  0.5163600000000  0.5242430000000 1.0
C      1  0.4461410000000  0.4836330000000  0.4757650000000 1.0
C      1  0.4717890000000  0.5748030000000  0.4756080000000 1.0
C      1  0.4718010000000  0.4251940000000  0.5243960000000 1.0
C      1  0.4961310000000  0.4863500000000  0.5301050000000 1.0
C      1  0.4961250000000  0.5136490000000  0.4698960000000 1.0
C      1  0.4378760000000  0.4734040000000  0.4723080000000 1.0
C      1  0.4378770000000  0.5265890000000  0.5277000000000 1.0
C      1  0.5112670000000  0.5070960000000  0.5722230000000 1.0
C      1  0.5112580000000  0.4929050000000  0.4277760000000 1.0
C      1  0.5128780000000  0.4461840000000  0.4432890000000 1.0
C      1  0.5128800000000  0.5538170000000  0.5567090000000 1.0
C      1  0.4573780000000  0.5150000000000  0.5130400000000 1.0
C      1  0.4573780000000  0.4849950000000  0.4869660000000 1.0
C      1  0.5739910000000  0.5147140000000  0.5089120000000 1.0
C      1  0.5739920000000  0.4852950000000  0.4910780000000 1.0
C      1  0.4941610000000  0.5224490000000  0.5843510000000 1.0
C      1  0.4941510000000  0.4775510000000  0.4156500000000 1.0
C      1  0.5529430000000  0.4356020000000  0.5083150000000 1.0
C      1  0.5529340000000  0.5644050000000  0.4916770000000 1.0
C      1  0.5545020000000  0.5519750000000  0.4706110000000 1.0
C      1  0.5545130000000  0.4480320000000  0.5293810000000 1.0
C      1  0.5125790000000  0.4515120000000  0.4854660000000 1.0
C      1  0.5125750000000  0.5484900000000  0.5145320000000 1.0
C      1  0.4486030000000  0.5060620000000  0.4811450000000 1.0
C      1  0.4486060000000  0.4939320000000  0.5188630000000 1.0
C      1  0.4623590000000  0.5191300000000  0.4668260000000 1.0
C      1  0.4623660000000  0.4808650000000  0.5331790000000 1.0
C      1  0.4232270000000  0.5159060000000  0.4652430000000 1.0
C      1  0.4232330000000  0.4840850000000  0.5347680000000 1.0
C      1  0.4648420000000  0.5745110000000  0.4403020000000 1.0
C      1  0.4648590000000  0.4254850000000  0.5597030000000 1.0
C      1  0.5664610000000  0.5098940000000  0.4642650000000 1.0
C      1  0.5664680000000  0.4901140000000  0.5357250000000 1.0
C      1  0.5266960000000  0.5824420000000  0.5078130000000 1.0
C      1  0.5267050000000  0.4175610000000  0.4921830000000 1.0
C      1  0.4953690000000  0.4634380000000  0.4352200000000 1.0
C      1  0.4953740000000  0.5365620000000  0.5647810000000 1.0
C      1  0.4957550000000  0.4713940000000  0.4581940000000 1.0
C      1  0.4957580000000  0.5286050000000  0.5418070000000 1.0
C      1  0.4269090000000  0.4694610000000  0.5143750000000 1.0
C      1  0.4269030000000  0.5305300000000  0.4856360000000 1.0
C      1  0.5458250000000  0.5435470000000  0.5474380000000 1.0
C      1  0.5458240000000  0.4564580000000  0.4525560000000 1.0
C      1  0.5204740000000  0.4317620000000  0.5237660000000 1.0
C      1  0.5204630000000  0.5682400000000  0.4762310000000 1.0
C      1  0.4884330000000  0.4989010000000  0.4474760000000 1.0
C      1  0.4884400000000  0.5010980000000  0.5525260000000 1.0
C      1  0.5603590000000  0.5393390000000  0.4664440000000 1.0
C      1  0.5603680000000  0.4606680000000  0.5335480000000 1.0
C      1  0.5289440000000  0.4261620000000  0.5022300000000 1.0
C      1  0.5289340000000  0.5738410000000  0.4977660000000 1.0
C      1  0.4864440000000  0.5083390000000  0.4757030000000 1.0
C      1  0.4864480000000  0.4916590000000  0.5242990000000 1.0
C      1  0.4521590000000  0.4808010000000  0.5233860000000 1.0
C      1  0.4521540000000  0.5191940000000  0.4766200000000 1.0
C      1  0.4812750000000  0.5396790000000  0.5035190000000 1.0
C      1  0.4812790000000  0.4603190000000  0.4964840000000 1.0
C      1  0.5403170000000  0.5264150000000  0.4369700000000 1.0
C      1  0.5403290000000  0.4735900000000  0.5630240000000 1.0
C      1  0.4700050000000  0.4885280000000  0.4809360000000 1.0
C      1  0.4700060000000  0.5114680000000  0.5190690000000 1.0
C      1  0.5396740000000  0.4520380000000  0.5557180000000 1.0
C      1  0.5396600000000  0.5479670000000  0.4442760000000 1.0
C      1  0.5695120000000  0.5262140000000  0.5024300000000 1.0
C      1  0.5695150000000  0.4737940000000  0.4975600000000 1.0
C      1  0.4752710000000  0.5005740000000  0.5244890000000 1.0
C      1  0.4752670000000  0.4994230000000  0.4755150000000 1.0
C      1  0.4672710000000  0.5292120000000  0.4583540000000 1.0
C      1  0.4672800000000  0.4707850000000  0.5416500000000 1.0
END
