TITL C-526663-2196-76 69.5245738131833 1000000 -1633.25411505083 0 0 240 (C1) n - 1
REM
REM in /scratch/bkarasulu/Only-C240
REM
REM
REM
REM
REM
REM ./C.cell (db1db5b03a21c153a00b653f6831bbfd)
REM
REM compiler GCC version 9.2.1 20190827 (Red Hat 9.2.1-1)
REM options -cpp -mtune=generic -march=x86-64 -g -O0 -fpre-include=/usr/include/finclude/math-vector-fortran.h
REM seed -168358381 1648759543 -936926428 -1488487546 457620648 447940961 542781218 -1629913707 460790602 -1768334427 -1368413846 -1325791753 1252078178 -1964834923 -1157175954 765662736 1301441172 1727369839 -1861176131 1991021793 -1390949641 2100841428 -939559845 -1147375427 879286432 292487262 418998220 1809514996 -509668279 -619219340 -294031993 1235237555 -1936638045
REM
CELL 1.54180  100.00000  100.00000  100.00000   90.00000   90.00000   90.00000
LATT -1
SFAC C  
C      1  0.4880090000000  0.4300040000000  0.4524510000000 1.0
C      1  0.5157850000000  0.5442830000000  0.4310820000000 1.0
C      1  0.4886650000000  0.5695630000000  0.5488530000000 1.0
C      1  0.5134180000000  0.4530360000000  0.5688720000000 1.0
C      1  0.5708150000000  0.4989200000000  0.4936590000000 1.0
C      1  0.4263720000000  0.5057690000000  0.4964440000000 1.0
C      1  0.5704750000000  0.5062740000000  0.5041800000000 1.0
C      1  0.4265050000000  0.4949530000000  0.5034460000000 1.0
C      1  0.5260290000000  0.4664140000000  0.5258060000000 1.0
C      1  0.4734840000000  0.4728030000000  0.4657840000000 1.0
C      1  0.5254170000000  0.5333250000000  0.4737830000000 1.0
C      1  0.4740650000000  0.5269200000000  0.5343450000000 1.0
C      1  0.5434870000000  0.5159570000000  0.5292050000000 1.0
C      1  0.4544840000000  0.4720760000000  0.5143890000000 1.0
C      1  0.5439300000000  0.4853180000000  0.4709930000000 1.0
C      1  0.4544130000000  0.5282150000000  0.4854630000000 1.0
C      1  0.4533570000000  0.5616500000000  0.4965680000000 1.0
C      1  0.5484870000000  0.5018930000000  0.5612760000000 1.0
C      1  0.4520800000000  0.4387490000000  0.5028780000000 1.0
C      1  0.5455900000000  0.4974140000000  0.4376240000000 1.0
C      1  0.5137620000000  0.5496550000000  0.5057110000000 1.0
C      1  0.4851310000000  0.4953980000000  0.5511530000000 1.0
C      1  0.5144840000000  0.4495230000000  0.4948890000000 1.0
C      1  0.4848580000000  0.5039380000000  0.4487660000000 1.0
C      1  0.5246490000000  0.5466460000000  0.4544360000000 1.0
C      1  0.4780140000000  0.5456760000000  0.5475930000000 1.0
C      1  0.5237610000000  0.4531260000000  0.5448340000000 1.0
C      1  0.4774130000000  0.4539920000000  0.4526270000000 1.0
C      1  0.5110640000000  0.5648640000000  0.4854280000000 1.0
C      1  0.4914330000000  0.5151690000000  0.5656300000000 1.0
C      1  0.5097150000000  0.4346190000000  0.5147400000000 1.0
C      1  0.4914850000000  0.4842380000000  0.4341480000000 1.0
C      1  0.4919830000000  0.5080910000000  0.5529840000000 1.0
C      1  0.5078250000000  0.4471790000000  0.5076820000000 1.0
C      1  0.4917900000000  0.4913850000000  0.4467520000000 1.0
C      1  0.5084900000000  0.5522660000000  0.4921990000000 1.0
C      1  0.5483690000000  0.5121960000000  0.5521010000000 1.0
C      1  0.4515570000000  0.4485370000000  0.5125550000000 1.0
C      1  0.5468490000000  0.4879850000000  0.4475880000000 1.0
C      1  0.4524970000000  0.5518980000000  0.4868780000000 1.0
C      1  0.5237300000000  0.5137820000000  0.5405130000000 1.0
C      1  0.4750900000000  0.4620580000000  0.5126310000000 1.0
C      1  0.5234600000000  0.4866740000000  0.4611700000000 1.0
C      1  0.4753030000000  0.5373890000000  0.4875210000000 1.0
C      1  0.4604520000000  0.4596600000000  0.5111980000000 1.0
C      1  0.5379360000000  0.4886470000000  0.4586970000000 1.0
C      1  0.4608310000000  0.5404250000000  0.4884800000000 1.0
C      1  0.5385060000000  0.5116550000000  0.5416750000000 1.0
C      1  0.4523070000000  0.4965430000000  0.4532250000000 1.0
C      1  0.5445470000000  0.5472610000000  0.4997310000000 1.0
C      1  0.4524260000000  0.5035720000000  0.5464660000000 1.0
C      1  0.5479320000000  0.4550430000000  0.5020640000000 1.0
C      1  0.4596080000000  0.5134820000000  0.5490540000000 1.0
C      1  0.5409090000000  0.4522840000000  0.5120530000000 1.0
C      1  0.4593410000000  0.4864540000000  0.4508860000000 1.0
C      1  0.5381840000000  0.5484800000000  0.4890540000000 1.0
C      1  0.5230230000000  0.5326880000000  0.4595220000000 1.0
C      1  0.4768600000000  0.5410100000000  0.5333620000000 1.0
C      1  0.5242090000000  0.4673790000000  0.5400310000000 1.0
C      1  0.4761410000000  0.4587240000000  0.4668200000000 1.0
C      1  0.5176190000000  0.4743710000000  0.5183190000000 1.0
C      1  0.4810220000000  0.4808350000000  0.4741130000000 1.0
C      1  0.5173460000000  0.5251400000000  0.4815140000000 1.0
C      1  0.4814410000000  0.5187970000000  0.5259800000000 1.0
C      1  0.5120290000000  0.5136390000000  0.4758030000000 1.0
C      1  0.4864000000000  0.5242980000000  0.5142270000000 1.0
C      1  0.5124170000000  0.4858330000000  0.5241890000000 1.0
C      1  0.4861240000000  0.4752850000000  0.4857970000000 1.0
C      1  0.5639030000000  0.5260180000000  0.4753040000000 1.0
C      1  0.4304160000000  0.5239580000000  0.5240690000000 1.0
C      1  0.5692330000000  0.4780600000000  0.5223280000000 1.0
C      1  0.4299970000000  0.4769000000000  0.4757910000000 1.0
C      1  0.5645870000000  0.5396730000000  0.5317490000000 1.0
C      1  0.4360080000000  0.4695510000000  0.5398190000000 1.0
C      1  0.5641420000000  0.4617600000000  0.4680150000000 1.0
C      1  0.4368660000000  0.5311020000000  0.4595380000000 1.0
C      1  0.5139210000000  0.5624170000000  0.5278980000000 1.0
C      1  0.4865970000000  0.4746400000000  0.5646540000000 1.0
C      1  0.5143180000000  0.4357550000000  0.4740240000000 1.0
C      1  0.4872030000000  0.5245310000000  0.4352110000000 1.0
C      1  0.5154020000000  0.5575070000000  0.5163180000000 1.0
C      1  0.4825240000000  0.4860990000000  0.5606710000000 1.0
C      1  0.5175690000000  0.4404310000000  0.4854240000000 1.0
C      1  0.4826410000000  0.5131330000000  0.4389820000000 1.0
C      1  0.5166860000000  0.4478020000000  0.4372890000000 1.0
C      1  0.4861740000000  0.5596540000000  0.4489310000000 1.0
C      1  0.5173460000000  0.5516990000000  0.5650240000000 1.0
C      1  0.4841770000000  0.4386960000000  0.5509740000000 1.0
C      1  0.5174480000000  0.5640200000000  0.4728920000000 1.0
C      1  0.4854540000000  0.5277050000000  0.5644280000000 1.0
C      1  0.5161800000000  0.4360070000000  0.5270280000000 1.0
C      1  0.4852340000000  0.4718740000000  0.4358210000000 1.0
C      1  0.4440960000000  0.4807070000000  0.5412710000000 1.0
C      1  0.5560770000000  0.4597850000000  0.4791050000000 1.0
C      1  0.4445180000000  0.5196320000000  0.4583400000000 1.0
C      1  0.5555110000000  0.5416750000000  0.5213510000000 1.0
C      1  0.5035360000000  0.5073880000000  0.4855170000000 1.0
C      1  0.4945450000000  0.5142330000000  0.5078480000000 1.0
C      1  0.5038040000000  0.4920920000000  0.5144410000000 1.0
C      1  0.4942830000000  0.4853350000000  0.4921930000000 1.0
C      1  0.4330940000000  0.4695200000000  0.4859390000000 1.0
C      1  0.5621710000000  0.5153490000000  0.4682300000000 1.0
C      1  0.4332880000000  0.5312910000000  0.5138210000000 1.0
C      1  0.5662610000000  0.4881730000000  0.5298150000000 1.0
C      1  0.5182950000000  0.5344160000000  0.4215290000000 1.0
C      1  0.4852690000000  0.5797370000000  0.5398280000000 1.0
C      1  0.5175530000000  0.4613510000000  0.5793570000000 1.0
C      1  0.4838240000000  0.4196940000000  0.4609660000000 1.0
C      1  0.4420040000000  0.5257220000000  0.4912550000000 1.0
C      1  0.5553330000000  0.5100760000000  0.5247540000000 1.0
C      1  0.4423260000000  0.4751270000000  0.5083670000000 1.0
C      1  0.5556560000000  0.4921910000000  0.4740520000000 1.0
C      1  0.4994270000000  0.4583130000000  0.5096500000000 1.0
C      1  0.4993710000000  0.4896280000000  0.4585090000000 1.0
C      1  0.4996350000000  0.5414130000000  0.4902210000000 1.0
C      1  0.4997960000000  0.5096780000000  0.5414110000000 1.0
C      1  0.4521490000000  0.4307000000000  0.4931120000000 1.0
C      1  0.5449520000000  0.5066020000000  0.4291050000000 1.0
C      1  0.4537720000000  0.5697010000000  0.5063110000000 1.0
C      1  0.5491030000000  0.4915370000000  0.5684950000000 1.0
C      1  0.5613830000000  0.4996580000000  0.5315820000000 1.0
C      1  0.4375770000000  0.4677190000000  0.4975760000000 1.0
C      1  0.5592820000000  0.5032570000000  0.4663260000000 1.0
C      1  0.4374660000000  0.5332470000000  0.5020900000000 1.0
C      1  0.5285380000000  0.5448350000000  0.5620880000000 1.0
C      1  0.4732340000000  0.4420320000000  0.5440500000000 1.0
C      1  0.5273290000000  0.4554060000000  0.4403630000000 1.0
C      1  0.4749290000000  0.5571650000000  0.4556000000000 1.0
C      1  0.5581800000000  0.5093370000000  0.5108320000000 1.0
C      1  0.4384700000000  0.4888170000000  0.5077130000000 1.0
C      1  0.5592300000000  0.4935690000000  0.4876740000000 1.0
C      1  0.4380950000000  0.5120570000000  0.4919300000000 1.0
C      1  0.5090490000000  0.5289160000000  0.4937280000000 1.0
C      1  0.4899350000000  0.5063780000000  0.5298340000000 1.0
C      1  0.5090700000000  0.4704910000000  0.5061010000000 1.0
C      1  0.4893420000000  0.4932300000000  0.4702080000000 1.0
C      1  0.5049030000000  0.4242600000000  0.5066220000000 1.0
C      1  0.4973790000000  0.4914200000000  0.4236600000000 1.0
C      1  0.5067220000000  0.5750870000000  0.4941240000000 1.0
C      1  0.4968470000000  0.5070600000000  0.5756980000000 1.0
C      1  0.4817500000000  0.5579180000000  0.5508430000000 1.0
C      1  0.5201130000000  0.4503180000000  0.5572200000000 1.0
C      1  0.4814110000000  0.4417240000000  0.4497550000000 1.0
C      1  0.5236090000000  0.5491690000000  0.4413780000000 1.0
C      1  0.4997120000000  0.4204230000000  0.4957840000000 1.0
C      1  0.5030300000000  0.5011570000000  0.4178180000000 1.0
C      1  0.5013420000000  0.5788280000000  0.5049100000000 1.0
C      1  0.5018400000000  0.4961930000000  0.5796630000000 1.0
C      1  0.4834880000000  0.5042060000000  0.4623890000000 1.0
C      1  0.5148720000000  0.5360320000000  0.5048800000000 1.0
C      1  0.4838430000000  0.4954450000000  0.5375280000000 1.0
C      1  0.5153080000000  0.4631580000000  0.4951040000000 1.0
C      1  0.4684700000000  0.5457340000000  0.4547650000000 1.0
C      1  0.5347000000000  0.5456820000000  0.5505250000000 1.0
C      1  0.4671250000000  0.4536300000000  0.5448720000000 1.0
C      1  0.5335010000000  0.4547660000000  0.4519560000000 1.0
C      1  0.5318930000000  0.5457040000000  0.4773790000000 1.0
C      1  0.4686240000000  0.5237620000000  0.5472280000000 1.0
C      1  0.5320170000000  0.4537840000000  0.5224560000000 1.0
C      1  0.4681530000000  0.4760010000000  0.4528290000000 1.0
C      1  0.4834780000000  0.4617740000000  0.4897830000000 1.0
C      1  0.5149800000000  0.5096660000000  0.4623560000000 1.0
C      1  0.4838790000000  0.5379130000000  0.5103240000000 1.0
C      1  0.5159270000000  0.4901220000000  0.5374550000000 1.0
C      1  0.5577910000000  0.5227890000000  0.5497510000000 1.0
C      1  0.4423640000000  0.4508650000000  0.5234260000000 1.0
C      1  0.5568630000000  0.4779270000000  0.4494450000000 1.0
C      1  0.4434360000000  0.5498700000000  0.4758130000000 1.0
C      1  0.5015110000000  0.5463560000000  0.4337160000000 1.0
C      1  0.5033780000000  0.5678480000000  0.5509850000000 1.0
C      1  0.4987290000000  0.4517640000000  0.5674340000000 1.0
C      1  0.5027330000000  0.4313380000000  0.4511370000000 1.0
C      1  0.5418280000000  0.5408870000000  0.5265760000000 1.0
C      1  0.4581110000000  0.4767520000000  0.5392070000000 1.0
C      1  0.5418970000000  0.4604940000000  0.4752380000000 1.0
C      1  0.4585700000000  0.5231170000000  0.4607980000000 1.0
C      1  0.4891090000000  0.4178070000000  0.4724770000000 1.0
C      1  0.5153010000000  0.5233720000000  0.4161060000000 1.0
C      1  0.4906990000000  0.5812340000000  0.5282940000000 1.0
C      1  0.5121560000000  0.4727220000000  0.5817360000000 1.0
C      1  0.5072420000000  0.4844980000000  0.5823490000000 1.0
C      1  0.4940720000000  0.4175530000000  0.4842490000000 1.0
C      1  0.5100790000000  0.5115950000000  0.4140870000000 1.0
C      1  0.4956390000000  0.5816590000000  0.5164730000000 1.0
C      1  0.5560730000000  0.5426870000000  0.5068500000000 1.0
C      1  0.4417560000000  0.4950320000000  0.5422580000000 1.0
C      1  0.5583690000000  0.4594980000000  0.4934390000000 1.0
C      1  0.4417910000000  0.5053580000000  0.4573450000000 1.0
C      1  0.5130880000000  0.5045100000000  0.5411440000000 1.0
C      1  0.4861710000000  0.4586840000000  0.5044410000000 1.0
C      1  0.5124180000000  0.4951970000000  0.4587440000000 1.0
C      1  0.4864260000000  0.5410140000000  0.4955930000000 1.0
C      1  0.5466020000000  0.5057050000000  0.5032150000000 1.0
C      1  0.4502740000000  0.4968810000000  0.5051940000000 1.0
C      1  0.5472130000000  0.4951790000000  0.4957320000000 1.0
C      1  0.4501610000000  0.5042400000000  0.4944860000000 1.0
C      1  0.4957120000000  0.4959820000000  0.4832970000000 1.0
C      1  0.5022310000000  0.5161450000000  0.4962860000000 1.0
C      1  0.4962340000000  0.5036460000000  0.5167480000000 1.0
C      1  0.5022510000000  0.4833920000000  0.5036230000000 1.0
C      1  0.4759590000000  0.4668290000000  0.4443480000000 1.0
C      1  0.5258410000000  0.5548650000000  0.4674980000000 1.0
C      1  0.4763590000000  0.5328190000000  0.5557700000000 1.0
C      1  0.5251330000000  0.4449070000000  0.5319540000000 1.0
C      1  0.4284000000000  0.4875160000000  0.4687300000000 1.0
C      1  0.5657660000000  0.5327120000000  0.4860940000000 1.0
C      1  0.4287140000000  0.5132920000000  0.5310590000000 1.0
C      1  0.5709850000000  0.4713050000000  0.5115330000000 1.0
C      1  0.4959610000000  0.5563030000000  0.4417810000000 1.0
C      1  0.5085140000000  0.5597700000000  0.5611150000000 1.0
C      1  0.4931870000000  0.4421730000000  0.5589520000000 1.0
C      1  0.5081560000000  0.4395510000000  0.4412630000000 1.0
C      1  0.4789440000000  0.4539520000000  0.4792840000000 1.0
C      1  0.5195170000000  0.5203120000000  0.4549040000000 1.0
C      1  0.4796360000000  0.5458410000000  0.5208820000000 1.0
C      1  0.5212260000000  0.4797200000000  0.5449890000000 1.0
C      1  0.4645900000000  0.5339080000000  0.4545040000000 1.0
C      1  0.5381090000000  0.5466620000000  0.5385680000000 1.0
C      1  0.4635030000000  0.4655450000000  0.5452820000000 1.0
C      1  0.5369330000000  0.4542440000000  0.4639470000000 1.0
C      1  0.5686300000000  0.4657190000000  0.5004380000000 1.0
C      1  0.4312210000000  0.4985170000000  0.4631540000000 1.0
C      1  0.5651780000000  0.5374900000000  0.4976900000000 1.0
C      1  0.4313410000000  0.5022110000000  0.5365600000000 1.0
C      1  0.4754970000000  0.5263710000000  0.4786990000000 1.0
C      1  0.5229860000000  0.5253990000000  0.5323650000000 1.0
C      1  0.4754650000000  0.4727680000000  0.5217850000000 1.0
C      1  0.5232790000000  0.4769480000000  0.4713710000000 1.0
C      1  0.5607250000000  0.4684310000000  0.4570090000000 1.0
C      1  0.4401630000000  0.5420490000000  0.4663250000000 1.0
C      1  0.5616270000000  0.5325590000000  0.5426960000000 1.0
C      1  0.4391120000000  0.4585530000000  0.5330140000000 1.0
C      1  0.5095260000000  0.4314510000000  0.4630810000000 1.0
C      1  0.4939460000000  0.5349390000000  0.4327700000000 1.0
C      1  0.5100280000000  0.5673560000000  0.5389370000000 1.0
C      1  0.4917770000000  0.4635890000000  0.5680580000000 1.0
C      1  0.4627900000000  0.4773400000000  0.5254090000000 1.0
C      1  0.5360660000000  0.4738620000000  0.4760920000000 1.0
C      1  0.4627330000000  0.5223780000000  0.4747140000000 1.0
C      1  0.5353180000000  0.5278070000000  0.5258160000000 1.0
END
