TITL C-526663-2196-17 -7.12306133049472 1000000 -3579.40360705886 0 0 520 (C5) n - 1
REM
REM in /scratch/bkarasulu/Only-C240
REM
REM
REM
REM
REM
REM ./C.cell (db1db5b03a21c153a00b653f6831bbfd)
REM
REM compiler GCC version 9.2.1 20190827 (Red Hat 9.2.1-1)
REM options -cpp -mtune=generic -march=x86-64 -g -O0 -fpre-include=/usr/include/finclude/math-vector-fortran.h
REM seed -1800934616 -1587534658 -1729280091 -509729161 1253891126 618225355 -1661287862 -873790981 694742854 -2040851762 -1702803683 -519897542 -2086172860 -505028622 -709563736 171571937 598687250 -1045125122 -843123000 -994516641 1639751995 -1402776239 -464932553 594622949 -1358026836 -1086989574 368744261 -592239993 1771589196 -680619600 1315970056 -694014621 -566408452
REM
CELL 1.54180  100.00000  100.00000  100.00000   90.00000   90.00000   90.00000
LATT -1
SFAC C  
C      1  0.5178860000000  0.5389280000000  0.4839470000000 1.0
C      1  0.5207920000000  0.5389280000000  0.5120510000000 1.0
C      1  0.4949630000000  0.5389280000000  0.5235000000000 1.0
C      1  0.4760920000000  0.5389270000000  0.5024720000000 1.0
C      1  0.4902600000000  0.5389270000000  0.4780270000000 1.0
C      1  0.5178890000000  0.4610730000000  0.4839490000000 1.0
C      1  0.5207950000000  0.4610730000000  0.5120520000000 1.0
C      1  0.4949650000000  0.4610730000000  0.5235010000000 1.0
C      1  0.4760950000000  0.4610720000000  0.5024730000000 1.0
C      1  0.4902630000000  0.4610720000000  0.4780280000000 1.0
C      1  0.4491490000000  0.5251900000000  0.5637090000000 1.0
C      1  0.4236940000000  0.5251880000000  0.4713260000000 1.0
C      1  0.5036900000000  0.5251900000000  0.4185690000000 1.0
C      1  0.5785850000000  0.5251940000000  0.4783470000000 1.0
C      1  0.5448770000000  0.5251940000000  0.5680480000000 1.0
C      1  0.4491510000000  0.4748080000000  0.5637100000000 1.0
C      1  0.4236960000000  0.4748060000000  0.4713260000000 1.0
C      1  0.5036920000000  0.4748080000000  0.4185690000000 1.0
C      1  0.5785870000000  0.4748110000000  0.4783470000000 1.0
C      1  0.5448790000000  0.4748110000000  0.5680490000000 1.0
C      1  0.5686750000000  0.4604020000000  0.5196000000000 1.0
C      1  0.5025820000000  0.4604010000000  0.5713700000000 1.0
C      1  0.4329230000000  0.4603970000000  0.5245090000000 1.0
C      1  0.4559640000000  0.4603970000000  0.4437790000000 1.0
C      1  0.5398630000000  0.4604000000000  0.4407440000000 1.0
C      1  0.5686720000000  0.5396030000000  0.5195990000000 1.0
C      1  0.5025790000000  0.5396010000000  0.5713690000000 1.0
C      1  0.4329200000000  0.5395980000000  0.5245080000000 1.0
C      1  0.4559610000000  0.5395980000000  0.4437770000000 1.0
C      1  0.5398600000000  0.5396010000000  0.4407430000000 1.0
C      1  0.5363300000000  0.5237610000000  0.4537600000000 1.0
C      1  0.5552030000000  0.5237630000000  0.5202640000000 1.0
C      1  0.4977860000000  0.5237610000000  0.5587630000000 1.0
C      1  0.4434280000000  0.5237590000000  0.5160530000000 1.0
C      1  0.4672500000000  0.5237590000000  0.4511580000000 1.0
C      1  0.5363320000000  0.4762400000000  0.4537610000000 1.0
C      1  0.5552040000000  0.4762420000000  0.5202640000000 1.0
C      1  0.4977870000000  0.4762400000000  0.5587640000000 1.0
C      1  0.4434290000000  0.4762380000000  0.5160540000000 1.0
C      1  0.4672510000000  0.4762380000000  0.4511590000000 1.0
C      1  0.4732990000000  0.4421780000000  0.4854770000000 1.0
C      1  0.5055630000000  0.4421790000000  0.4701160000000 1.0
C      1  0.5301420000000  0.4421800000000  0.4960550000000 1.0
C      1  0.5130690000000  0.4421800000000  0.5274460000000 1.0
C      1  0.4779380000000  0.4421780000000  0.5209090000000 1.0
C      1  0.4732950000000  0.5578200000000  0.4854760000000 1.0
C      1  0.5055590000000  0.5578210000000  0.4701150000000 1.0
C      1  0.5301380000000  0.5578220000000  0.4960530000000 1.0
C      1  0.5130650000000  0.5578220000000  0.5274450000000 1.0
C      1  0.4779340000000  0.5578210000000  0.5209080000000 1.0
C      1  0.5489100000000  0.5749940000000  0.4973800000000 1.0
C      1  0.5176030000000  0.5749940000000  0.5457090000000 1.0
C      1  0.4619650000000  0.5749910000000  0.5308680000000 1.0
C      1  0.4588860000000  0.5749910000000  0.4733670000000 1.0
C      1  0.5126210000000  0.5749920000000  0.4526710000000 1.0
C      1  0.5489160000000  0.4250090000000  0.4973820000000 1.0
C      1  0.5176090000000  0.4250090000000  0.5457110000000 1.0
C      1  0.4619710000000  0.4250070000000  0.5308700000000 1.0
C      1  0.4588920000000  0.4250060000000  0.4733690000000 1.0
C      1  0.5126270000000  0.4250070000000  0.4526730000000 1.0
C      1  0.5310850000000  0.4286260000000  0.5434370000000 1.0
C      1  0.4682970000000  0.4286240000000  0.5429840000000 1.0
C      1  0.4493250000000  0.4286230000000  0.4831300000000 1.0
C      1  0.5003880000000  0.4286240000000  0.4465910000000 1.0
C      1  0.5509180000000  0.4286260000000  0.4838630000000 1.0
C      1  0.5310800000000  0.5713770000000  0.5434350000000 1.0
C      1  0.4682920000000  0.5713750000000  0.5429820000000 1.0
C      1  0.4493200000000  0.5713730000000  0.4831280000000 1.0
C      1  0.5003830000000  0.5713750000000  0.4465890000000 1.0
C      1  0.5509130000000  0.5713770000000  0.4838610000000 1.0
C      1  0.5177600000000  0.4372660000000  0.5146360000000 1.0
C      1  0.4915710000000  0.4372650000000  0.5214120000000 1.0
C      1  0.4770330000000  0.4372640000000  0.4985980000000 1.0
C      1  0.4942380000000  0.4372650000000  0.4777220000000 1.0
C      1  0.5194090000000  0.4372660000000  0.4876340000000 1.0
C      1  0.5177560000000  0.5627360000000  0.5146350000000 1.0
C      1  0.4915660000000  0.5627350000000  0.5214110000000 1.0
C      1  0.4770290000000  0.5627340000000  0.4985970000000 1.0
C      1  0.4942340000000  0.5627340000000  0.4777210000000 1.0
C      1  0.5194050000000  0.5627350000000  0.4876330000000 1.0
C      1  0.5322560000000  0.5076330000000  0.5569010000000 1.0
C      1  0.4558510000000  0.5076300000000  0.5482610000000 1.0
C      1  0.4404590000000  0.5076290000000  0.4729260000000 1.0
C      1  0.5073500000000  0.5076310000000  0.4350060000000 1.0
C      1  0.5640830000000  0.5076330000000  0.4869060000000 1.0
C      1  0.5322560000000  0.4923710000000  0.5569010000000 1.0
C      1  0.4558520000000  0.4923680000000  0.5482610000000 1.0
C      1  0.4404590000000  0.4923660000000  0.4729260000000 1.0
C      1  0.5073500000000  0.4923680000000  0.4350070000000 1.0
C      1  0.5640840000000  0.4923710000000  0.4869060000000 1.0
C      1  0.5877120000000  0.4928250000000  0.4944080000000 1.0
C      1  0.5324230000000  0.4928240000000  0.5816910000000 1.0
C      1  0.4323270000000  0.4928200000000  0.5560800000000 1.0
C      1  0.4257530000000  0.4928180000000  0.4529680000000 1.0
C      1  0.5217870000000  0.4928210000000  0.4148530000000 1.0
C      1  0.5877120000000  0.5071820000000  0.4944080000000 1.0
C      1  0.5324230000000  0.5071810000000  0.5816910000000 1.0
C      1  0.4323260000000  0.5071770000000  0.5560800000000 1.0
C      1  0.4257520000000  0.5071750000000  0.4529680000000 1.0
C      1  0.5217860000000  0.5071780000000  0.4148530000000 1.0
C      1  0.4866400000000  0.5403710000000  0.4633420000000 1.0
C      1  0.5307340000000  0.5403730000000  0.4759670000000 1.0
C      1  0.5323530000000  0.5403730000000  0.5218040000000 1.0
C      1  0.4892590000000  0.5403720000000  0.5375080000000 1.0
C      1  0.4610070000000  0.5403700000000  0.5013760000000 1.0
C      1  0.4866430000000  0.4596270000000  0.4633430000000 1.0
C      1  0.5307370000000  0.4596290000000  0.4759680000000 1.0
C      1  0.5323560000000  0.4596300000000  0.5218050000000 1.0
C      1  0.4892620000000  0.4596280000000  0.5375090000000 1.0
C      1  0.4610100000000  0.4596270000000  0.5013780000000 1.0
C      1  0.4621720000000  0.5305720000000  0.4273250000000 1.0
C      1  0.5574270000000  0.5305750000000  0.4415660000000 1.0
C      1  0.5733180000000  0.5305770000000  0.5365600000000 1.0
C      1  0.4878850000000  0.5305750000000  0.5810280000000 1.0
C      1  0.4191920000000  0.5305710000000  0.5135180000000 1.0
C      1  0.4621740000000  0.4694240000000  0.4273260000000 1.0
C      1  0.5574290000000  0.4694270000000  0.4415670000000 1.0
C      1  0.5733210000000  0.4694290000000  0.5365610000000 1.0
C      1  0.4878870000000  0.4694270000000  0.5810290000000 1.0
C      1  0.4191950000000  0.4694230000000  0.5135190000000 1.0
C      1  0.5594850000000  0.5142780000000  0.5000220000000 1.0
C      1  0.5183610000000  0.5142770000000  0.5565810000000 1.0
C      1  0.4518620000000  0.5142750000000  0.5349470000000 1.0
C      1  0.4518880000000  0.5142740000000  0.4650170000000 1.0
C      1  0.5184020000000  0.5142760000000  0.4434330000000 1.0
C      1  0.5594860000000  0.4857260000000  0.5000220000000 1.0
C      1  0.5183620000000  0.4857260000000  0.5565810000000 1.0
C      1  0.4518630000000  0.4857230000000  0.5349470000000 1.0
C      1  0.4518890000000  0.4857220000000  0.4650180000000 1.0
C      1  0.5184030000000  0.4857240000000  0.4434330000000 1.0
C      1  0.4859060000000  0.5730520000000  0.4697780000000 1.0
C      1  0.5243850000000  0.5730530000000  0.4772580000000 1.0
C      1  0.5291610000000  0.5730540000000  0.5161660000000 1.0
C      1  0.4936340000000  0.5730530000000  0.5327310000000 1.0
C      1  0.4669010000000  0.5730520000000  0.5040620000000 1.0
C      1  0.4859110000000  0.4269460000000  0.4697800000000 1.0
C      1  0.5243900000000  0.4269480000000  0.4772600000000 1.0
C      1  0.5291660000000  0.4269480000000  0.5161680000000 1.0
C      1  0.4936390000000  0.4269470000000  0.5327330000000 1.0
C      1  0.4669060000000  0.4269460000000  0.5040640000000 1.0
C      1  0.4725220000000  0.5077550000000  0.5201490000000 1.0
C      1  0.4723450000000  0.5077550000000  0.4800930000000 1.0
C      1  0.5103860000000  0.5077560000000  0.4675480000000 1.0
C      1  0.5340730000000  0.5077570000000  0.4998500000000 1.0
C      1  0.5106720000000  0.5077570000000  0.5323590000000 1.0
C      1  0.4725220000000  0.4922430000000  0.5201500000000 1.0
C      1  0.4723460000000  0.4922430000000  0.4800940000000 1.0
C      1  0.5103870000000  0.4922440000000  0.4675480000000 1.0
C      1  0.5340740000000  0.4922450000000  0.4998500000000 1.0
C      1  0.5106720000000  0.4922450000000  0.5323600000000 1.0
C      1  0.5396620000000  0.5184640000000  0.4276450000000 1.0
C      1  0.5810690000000  0.5184670000000  0.5153620000000 1.0
C      1  0.5104410000000  0.5184650000000  0.5818490000000 1.0
C      1  0.4253830000000  0.5184620000000  0.5352230000000 1.0
C      1  0.4434420000000  0.5184610000000  0.4399200000000 1.0
C      1  0.5396630000000  0.4815360000000  0.4276460000000 1.0
C      1  0.5810700000000  0.4815390000000  0.5153630000000 1.0
C      1  0.5104420000000  0.4815370000000  0.5818490000000 1.0
C      1  0.4253840000000  0.4815340000000  0.5352230000000 1.0
C      1  0.4434440000000  0.4815330000000  0.4399200000000 1.0
C      1  0.4454700000000  0.5600340000000  0.4739770000000 1.0
C      1  0.5078960000000  0.5600360000000  0.4400990000000 1.0
C      1  0.5594070000000  0.5600380000000  0.4890010000000 1.0
C      1  0.5288160000000  0.5600380000000  0.5531020000000 1.0
C      1  0.4584000000000  0.5600350000000  0.5438170000000 1.0
C      1  0.4454750000000  0.4399610000000  0.4739790000000 1.0
C      1  0.5079000000000  0.4399630000000  0.4401010000000 1.0
C      1  0.5594110000000  0.4399660000000  0.4890020000000 1.0
C      1  0.5288210000000  0.4399660000000  0.5531030000000 1.0
C      1  0.4584040000000  0.4399630000000  0.5438180000000 1.0
C      1  0.5020060000000  0.5299190000000  0.5823890000000 1.0
C      1  0.4222620000000  0.5299160000000  0.5273680000000 1.0
C      1  0.4499480000000  0.5299150000000  0.4345250000000 1.0
C      1  0.5468030000000  0.5299190000000  0.4321660000000 1.0
C      1  0.5789760000000  0.5299210000000  0.5235510000000 1.0
C      1  0.5020080000000  0.4700830000000  0.5823890000000 1.0
C      1  0.4222640000000  0.4700800000000  0.5273680000000 1.0
C      1  0.4499510000000  0.4700790000000  0.4345260000000 1.0
C      1  0.5468050000000  0.4700830000000  0.4321670000000 1.0
C      1  0.5789780000000  0.4700850000000  0.5235520000000 1.0
C      1  0.5184870000000  0.5077840000000  0.5869660000000 1.0
C      1  0.4230030000000  0.5077800000000  0.5444560000000 1.0
C      1  0.4339260000000  0.5077790000000  0.4405100000000 1.0
C      1  0.5361610000000  0.5077830000000  0.4187770000000 1.0
C      1  0.5884220000000  0.5077860000000  0.5092920000000 1.0
C      1  0.5184870000000  0.4922200000000  0.5869660000000 1.0
C      1  0.4230040000000  0.4922160000000  0.5444560000000 1.0
C      1  0.4339270000000  0.4922150000000  0.4405100000000 1.0
C      1  0.5361610000000  0.4922180000000  0.4187770000000 1.0
C      1  0.5884220000000  0.4922210000000  0.5092920000000 1.0
C      1  0.4724880000000  0.4444460000000  0.4371070000000 1.0
C      1  0.5513150000000  0.4444490000000  0.4543980000000 1.0
C      1  0.5592290000000  0.4444500000000  0.5347100000000 1.0
C      1  0.4852940000000  0.4444480000000  0.5670550000000 1.0
C      1  0.4316840000000  0.4444450000000  0.5067330000000 1.0
C      1  0.4724840000000  0.5555510000000  0.4371060000000 1.0
C      1  0.5513110000000  0.5555540000000  0.4543960000000 1.0
C      1  0.5592250000000  0.5555550000000  0.5347090000000 1.0
C      1  0.4852900000000  0.5555530000000  0.5670540000000 1.0
C      1  0.4316800000000  0.5555500000000  0.5067320000000 1.0
C      1  0.5383880000000  0.5135880000000  0.5703170000000 1.0
C      1  0.4449870000000  0.5135850000000  0.5582390000000 1.0
C      1  0.4276110000000  0.5135830000000  0.4656760000000 1.0
C      1  0.5102740000000  0.5135850000000  0.4205480000000 1.0
C      1  0.5787380000000  0.5135890000000  0.4852200000000 1.0
C      1  0.5383890000000  0.4864160000000  0.5703170000000 1.0
C      1  0.4449880000000  0.4864130000000  0.5582390000000 1.0
C      1  0.4276120000000  0.4864110000000  0.4656770000000 1.0
C      1  0.5102750000000  0.4864130000000  0.4205480000000 1.0
C      1  0.5787390000000  0.4864160000000  0.4852200000000 1.0
C      1  0.5664290000000  0.4704900000000  0.4740860000000 1.0
C      1  0.5451740000000  0.4704900000000  0.5551690000000 1.0
C      1  0.4614920000000  0.4704870000000  0.5600110000000 1.0
C      1  0.4310280000000  0.4704850000000  0.4819200000000 1.0
C      1  0.4958830000000  0.4704860000000  0.4288160000000 1.0
C      1  0.5664270000000  0.5295150000000  0.4740850000000 1.0
C      1  0.5451720000000  0.5295150000000  0.5551680000000 1.0
C      1  0.4614900000000  0.5295120000000  0.5600100000000 1.0
C      1  0.4310260000000  0.5295100000000  0.4819190000000 1.0
C      1  0.4958800000000  0.5295110000000  0.4288150000000 1.0
C      1  0.5491550000000  0.5593410000000  0.5127530000000 1.0
C      1  0.5030580000000  0.5593400000000  0.5506920000000 1.0
C      1  0.4527320000000  0.5593370000000  0.5185750000000 1.0
C      1  0.4677260000000  0.5593370000000  0.4607870000000 1.0
C      1  0.5273180000000  0.5593390000000  0.4571890000000 1.0
C      1  0.5491590000000  0.4406630000000  0.5127550000000 1.0
C      1  0.5030630000000  0.4406620000000  0.5506930000000 1.0
C      1  0.4527360000000  0.4406600000000  0.5185760000000 1.0
C      1  0.4677300000000  0.4406600000000  0.4607890000000 1.0
C      1  0.5273220000000  0.4406620000000  0.4571910000000 1.0
C      1  0.4953710000000  0.4727970000000  0.4869930000000 1.0
C      1  0.5109410000000  0.4727980000000  0.4915770000000 1.0
C      1  0.5113920000000  0.4727980000000  0.5078020000000 1.0
C      1  0.4961020000000  0.4727980000000  0.5132450000000 1.0
C      1  0.4862000000000  0.4727970000000  0.5003850000000 1.0
C      1  0.4953690000000  0.5272020000000  0.4869930000000 1.0
C      1  0.5109390000000  0.5272030000000  0.4915770000000 1.0
C      1  0.5113900000000  0.5272030000000  0.5078010000000 1.0
C      1  0.4961000000000  0.5272020000000  0.5132440000000 1.0
C      1  0.4861980000000  0.5272020000000  0.5003840000000 1.0
C      1  0.5217720000000  0.5848290000000  0.5137130000000 1.0
C      1  0.4936830000000  0.5848280000000  0.5249460000000 1.0
C      1  0.4743200000000  0.5848270000000  0.5017030000000 1.0
C      1  0.4904420000000  0.5848270000000  0.4761050000000 1.0
C      1  0.5197680000000  0.5848280000000  0.4835280000000 1.0
C      1  0.5217780000000  0.4151730000000  0.5137150000000 1.0
C      1  0.4936890000000  0.4151720000000  0.5249480000000 1.0
C      1  0.4743260000000  0.4151710000000  0.5017050000000 1.0
C      1  0.4904480000000  0.4151720000000  0.4761070000000 1.0
C      1  0.5197750000000  0.4151730000000  0.4835300000000 1.0
C      1  0.4690200000000  0.4803550000000  0.5127630000000 1.0
C      1  0.4782890000000  0.4803540000000  0.4744800000000 1.0
C      1  0.5175630000000  0.4803560000000  0.4714650000000 1.0
C      1  0.5325660000000  0.4803570000000  0.5078850000000 1.0
C      1  0.5025650000000  0.4803560000000  0.5334080000000 1.0
C      1  0.4690190000000  0.5196440000000  0.5127620000000 1.0
C      1  0.4782880000000  0.5196430000000  0.4744790000000 1.0
C      1  0.5175620000000  0.5196450000000  0.4714650000000 1.0
C      1  0.5325650000000  0.5196460000000  0.5078850000000 1.0
C      1  0.5025630000000  0.5196450000000  0.5334080000000 1.0
C      1  0.5627060000000  0.5417930000000  0.5332760000000 1.0
C      1  0.4877280000000  0.5417910000000  0.5699210000000 1.0
C      1  0.4297070000000  0.5417880000000  0.5099360000000 1.0
C      1  0.4688270000000  0.5417880000000  0.4362190000000 1.0
C      1  0.5510250000000  0.5417910000000  0.4506440000000 1.0
C      1  0.5627090000000  0.4582130000000  0.5332780000000 1.0
C      1  0.4877310000000  0.4582100000000  0.5699220000000 1.0
C      1  0.4297100000000  0.4582080000000  0.5099380000000 1.0
C      1  0.4688300000000  0.4582080000000  0.4362200000000 1.0
C      1  0.5510280000000  0.4582110000000  0.4506450000000 1.0
C      1  0.5073370000000  0.5148230000000  0.5679780000000 1.0
C      1  0.4376160000000  0.5148190000000  0.5279850000000 1.0
C      1  0.4541070000000  0.5148190000000  0.4493170000000 1.0
C      1  0.5340200000000  0.5148220000000  0.4406910000000 1.0
C      1  0.5669180000000  0.5148240000000  0.5140280000000 1.0
C      1  0.5073380000000  0.4851800000000  0.5679780000000 1.0
C      1  0.4376170000000  0.4851770000000  0.5279850000000 1.0
C      1  0.4541080000000  0.4851760000000  0.4493180000000 1.0
C      1  0.5340210000000  0.4851790000000  0.4406920000000 1.0
C      1  0.5669190000000  0.4851810000000  0.5140280000000 1.0
C      1  0.5702630000000  0.5071350000000  0.5394450000000 1.0
C      1  0.4841980000000  0.5071330000000  0.5790140000000 1.0
C      1  0.4199700000000  0.5071290000000  0.5093880000000 1.0
C      1  0.4663400000000  0.5071300000000  0.4267880000000 1.0
C      1  0.5592270000000  0.5071340000000  0.4453640000000 1.0
C      1  0.5702640000000  0.4928710000000  0.5394450000000 1.0
C      1  0.4841980000000  0.4928680000000  0.5790140000000 1.0
C      1  0.4199710000000  0.4928650000000  0.5093880000000 1.0
C      1  0.4663410000000  0.4928660000000  0.4267880000000 1.0
C      1  0.5592270000000  0.4928690000000  0.4453650000000 1.0
C      1  0.5424290000000  0.4702990000000  0.4756840000000 1.0
C      1  0.5362380000000  0.4703000000000  0.5328370000000 1.0
C      1  0.4799690000000  0.4702980000000  0.5446110000000 1.0
C      1  0.4513830000000  0.4702960000000  0.4947340000000 1.0
C      1  0.4899860000000  0.4702970000000  0.4521350000000 1.0
C      1  0.5424270000000  0.5297030000000  0.4756830000000 1.0
C      1  0.5362360000000  0.5297040000000  0.5328370000000 1.0
C      1  0.4799670000000  0.5297020000000  0.5446100000000 1.0
C      1  0.4513810000000  0.5297000000000  0.4947340000000 1.0
C      1  0.4899840000000  0.5297010000000  0.4521340000000 1.0
C      1  0.5529910000000  0.5215440000000  0.5458520000000 1.0
C      1  0.4727660000000  0.5215410000000  0.5645670000000 1.0
C      1  0.4301770000000  0.5215390000000  0.4940520000000 1.0
C      1  0.4840800000000  0.5215400000000  0.4317570000000 1.0
C      1  0.5599830000000  0.5215430000000  0.4637710000000 1.0
C      1  0.5529920000000  0.4784610000000  0.5458530000000 1.0
C      1  0.4727680000000  0.4784590000000  0.5645670000000 1.0
C      1  0.4301790000000  0.4784560000000  0.4940520000000 1.0
C      1  0.4840810000000  0.4784570000000  0.4317570000000 1.0
C      1  0.5599840000000  0.4784600000000  0.4637720000000 1.0
C      1  0.4407670000000  0.5085210000000  0.4890220000000 1.0
C      1  0.4921360000000  0.5085220000000  0.4402740000000 1.0
C      1  0.5543730000000  0.5085250000000  0.4740650000000 1.0
C      1  0.5414680000000  0.5085250000000  0.5436970000000 1.0
C      1  0.4712550000000  0.5085230000000  0.5529410000000 1.0
C      1  0.4407670000000  0.4914740000000  0.4890230000000 1.0
C      1  0.4921370000000  0.4914760000000  0.4402740000000 1.0
C      1  0.5543730000000  0.4914780000000  0.4740650000000 1.0
C      1  0.5414680000000  0.4914790000000  0.5436970000000 1.0
C      1  0.4712560000000  0.4914760000000  0.5529420000000 1.0
C      1  0.5158620000000  0.5649880000000  0.5567000000000 1.0
C      1  0.4509740000000  0.5649850000000  0.5326080000000 1.0
C      1  0.4538360000000  0.5649850000000  0.4634520000000 1.0
C      1  0.5204910000000  0.5649870000000  0.4448030000000 1.0
C      1  0.5588250000000  0.5649890000000  0.5024330000000 1.0
C      1  0.5158660000000  0.4350150000000  0.5567010000000 1.0
C      1  0.4509790000000  0.4350120000000  0.5326100000000 1.0
C      1  0.4538400000000  0.4350110000000  0.4634540000000 1.0
C      1  0.5204960000000  0.4350130000000  0.4448050000000 1.0
C      1  0.5588300000000  0.4350150000000  0.5024350000000 1.0
C      1  0.5203960000000  0.4928470000000  0.4562280000000 1.0
C      1  0.5479330000000  0.4928480000000  0.5058710000000 1.0
C      1  0.5092280000000  0.4928480000000  0.5474010000000 1.0
C      1  0.4577710000000  0.4928450000000  0.5234240000000 1.0
C      1  0.4646730000000  0.4928450000000  0.4670760000000 1.0
C      1  0.5203950000000  0.5071540000000  0.4562280000000 1.0
C      1  0.5479320000000  0.5071550000000  0.5058710000000 1.0
C      1  0.5092280000000  0.5071540000000  0.5474000000000 1.0
C      1  0.4577710000000  0.5071520000000  0.5234240000000 1.0
C      1  0.4646730000000  0.5071520000000  0.4670760000000 1.0
C      1  0.4477860000000  0.4644760000000  0.5246280000000 1.0
C      1  0.4604440000000  0.4644760000000  0.4579510000000 1.0
C      1  0.5277690000000  0.4644780000000  0.4493850000000 1.0
C      1  0.5567200000000  0.4644800000000  0.5107680000000 1.0
C      1  0.5072880000000  0.4644790000000  0.5572710000000 1.0
C      1  0.4477830000000  0.5355210000000  0.5246270000000 1.0
C      1  0.4604410000000  0.5355200000000  0.4579500000000 1.0
C      1  0.5277660000000  0.5355230000000  0.4493840000000 1.0
C      1  0.5567170000000  0.5355250000000  0.5107670000000 1.0
C      1  0.5072850000000  0.5355230000000  0.5572700000000 1.0
C      1  0.4521490000000  0.5285970000000  0.4679640000000 1.0
C      1  0.5156800000000  0.5285990000000  0.4445920000000 1.0
C      1  0.5575410000000  0.5286010000000  0.4977910000000 1.0
C      1  0.5198800000000  0.5286000000000  0.5540430000000 1.0
C      1  0.4547450000000  0.5285980000000  0.5356080000000 1.0
C      1  0.4521510000000  0.4713990000000  0.4679650000000 1.0
C      1  0.5156820000000  0.4714010000000  0.4445930000000 1.0
C      1  0.5575430000000  0.4714030000000  0.4977920000000 1.0
C      1  0.5198820000000  0.4714030000000  0.5540430000000 1.0
C      1  0.4547470000000  0.4714000000000  0.5356090000000 1.0
C      1  0.4769390000000  0.5156240000000  0.5021810000000 1.0
C      1  0.4907990000000  0.5156250000000  0.4787420000000 1.0
C      1  0.5173740000000  0.5156260000000  0.4846810000000 1.0
C      1  0.5199380000000  0.5156260000000  0.5117900000000 1.0
C      1  0.4949470000000  0.5156250000000  0.5226060000000 1.0
C      1  0.4769400000000  0.4843740000000  0.5021810000000 1.0
C      1  0.4908000000000  0.4843740000000  0.4787420000000 1.0
C      1  0.5173750000000  0.4843750000000  0.4846810000000 1.0
C      1  0.5199390000000  0.4843760000000  0.5117910000000 1.0
C      1  0.4949480000000  0.4843750000000  0.5226060000000 1.0
C      1  0.4633230000000  0.5069700000000  0.4414870000000 1.0
C      1  0.5443150000000  0.5069730000000  0.4470370000000 1.0
C      1  0.5640650000000  0.5069740000000  0.5257790000000 1.0
C      1  0.4952790000000  0.5069720000000  0.5688960000000 1.0
C      1  0.4330170000000  0.5069690000000  0.5168000000000 1.0
C      1  0.4633230000000  0.4930260000000  0.4414880000000 1.0
C      1  0.5443150000000  0.4930290000000  0.4470370000000 1.0
C      1  0.5640650000000  0.4930310000000  0.5257790000000 1.0
C      1  0.4952800000000  0.4930290000000  0.5688960000000 1.0
C      1  0.4330180000000  0.4930260000000  0.5168010000000 1.0
C      1  0.4712360000000  0.4553860000000  0.4623080000000 1.0
C      1  0.5269600000000  0.4553880000000  0.4609950000000 1.0
C      1  0.5454290000000  0.4553900000000  0.5135860000000 1.0
C      1  0.5011180000000  0.4553890000000  0.5474030000000 1.0
C      1  0.4552650000000  0.4553870000000  0.5157110000000 1.0
C      1  0.4712330000000  0.5446100000000  0.4623070000000 1.0
C      1  0.5269570000000  0.5446120000000  0.4609940000000 1.0
C      1  0.5454250000000  0.5446140000000  0.5135850000000 1.0
C      1  0.5011150000000  0.5446130000000  0.5474010000000 1.0
C      1  0.4552620000000  0.5446110000000  0.5157100000000 1.0
C      1  0.4874150000000  0.4116360000000  0.5009480000000 1.0
C      1  0.4952130000000  0.4116360000000  0.4883220000000 1.0
C      1  0.5096310000000  0.4116370000000  0.4918360000000 1.0
C      1  0.5107440000000  0.4116370000000  0.5066340000000 1.0
C      1  0.4970140000000  0.4116370000000  0.5122660000000 1.0
C      1  0.4874090000000  0.5883630000000  0.5009460000000 1.0
C      1  0.4952060000000  0.5883630000000  0.4883190000000 1.0
C      1  0.5096240000000  0.5883640000000  0.4918340000000 1.0
C      1  0.5107380000000  0.5883640000000  0.5066320000000 1.0
C      1  0.4970070000000  0.5883630000000  0.5122640000000 1.0
C      1  0.4665210000000  0.4515950000000  0.5428850000000 1.0
C      1  0.4488710000000  0.4515940000000  0.4814110000000 1.0
C      1  0.5018810000000  0.4515950000000  0.4456270000000 1.0
C      1  0.5522940000000  0.4515970000000  0.4849860000000 1.0
C      1  0.5304410000000  0.4515970000000  0.5450940000000 1.0
C      1  0.4665180000000  0.5484040000000  0.5428830000000 1.0
C      1  0.4488670000000  0.5484020000000  0.4814100000000 1.0
C      1  0.5018780000000  0.5484040000000  0.4456260000000 1.0
C      1  0.5522910000000  0.5484060000000  0.4849850000000 1.0
C      1  0.5304370000000  0.5484060000000  0.5450930000000 1.0
C      1  0.4782910000000  0.4802990000000  0.5785590000000 1.0
C      1  0.4185780000000  0.4802960000000  0.5036290000000 1.0
C      1  0.4713890000000  0.4802970000000  0.4236840000000 1.0
C      1  0.5637400000000  0.4803010000000  0.4492050000000 1.0
C      1  0.5680060000000  0.4803020000000  0.5449240000000 1.0
C      1  0.4782890000000  0.5197010000000  0.5785590000000 1.0
C      1  0.4185760000000  0.5196980000000  0.5036280000000 1.0
C      1  0.4713870000000  0.5196990000000  0.4236830000000 1.0
C      1  0.5637390000000  0.5197020000000  0.4492050000000 1.0
C      1  0.5680050000000  0.5197040000000  0.5449230000000 1.0
C      1  0.5165570000000  0.4323230000000  0.4652180000000 1.0
C      1  0.5381990000000  0.4323250000000  0.5049970000000 1.0
C      1  0.5070550000000  0.4323240000000  0.5378720000000 1.0
C      1  0.4661640000000  0.4323220000000  0.5184110000000 1.0
C      1  0.4720370000000  0.4323220000000  0.4735080000000 1.0
C      1  0.5165520000000  0.5676770000000  0.4652160000000 1.0
C      1  0.5381940000000  0.5676780000000  0.5049950000000 1.0
C      1  0.5070500000000  0.5676780000000  0.5378700000000 1.0
C      1  0.4661600000000  0.5676760000000  0.5184090000000 1.0
C      1  0.4720320000000  0.5676750000000  0.4735060000000 1.0
C      1  0.4646410000000  0.5339810000000  0.5453410000000 1.0
C      1  0.4459500000000  0.5339790000000  0.4803830000000 1.0
C      1  0.5019530000000  0.5339810000000  0.4425350000000 1.0
C      1  0.5552550000000  0.5339830000000  0.4841010000000 1.0
C      1  0.5321950000000  0.5339830000000  0.5476380000000 1.0
C      1  0.4646430000000  0.4660180000000  0.5453420000000 1.0
C      1  0.4459530000000  0.4660160000000  0.4803840000000 1.0
C      1  0.5019560000000  0.4660180000000  0.4425350000000 1.0
C      1  0.5552580000000  0.4660200000000  0.4841010000000 1.0
C      1  0.5321970000000  0.4660200000000  0.5476390000000 1.0
C      1  0.5228000000000  0.4920520000000  0.5243890000000 1.0
C      1  0.4838500000000  0.4920500000000  0.5292200000000 1.0
C      1  0.4672200000000  0.4920490000000  0.4936700000000 1.0
C      1  0.4958910000000  0.4920500000000  0.4668680000000 1.0
C      1  0.5302410000000  0.4920510000000  0.4858530000000 1.0
C      1  0.5227990000000  0.5079510000000  0.5243890000000 1.0
C      1  0.4838490000000  0.5079490000000  0.5292200000000 1.0
C      1  0.4672190000000  0.5079480000000  0.4936700000000 1.0
C      1  0.4958900000000  0.5079490000000  0.4668670000000 1.0
C      1  0.5302410000000  0.5079500000000  0.4858530000000 1.0
C      1  0.4886250000000  0.5675330000000  0.4540560000000 1.0
C      1  0.5401770000000  0.5675350000000  0.4749860000000 1.0
C      1  0.5362020000000  0.5675360000000  0.5304830000000 1.0
C      1  0.4821940000000  0.5675340000000  0.5438520000000 1.0
C      1  0.4527890000000  0.5675320000000  0.4966180000000 1.0
C      1  0.4886300000000  0.4324650000000  0.4540580000000 1.0
C      1  0.5401820000000  0.4324670000000  0.4749880000000 1.0
C      1  0.5362070000000  0.4324680000000  0.5304850000000 1.0
C      1  0.4821980000000  0.4324660000000  0.5438540000000 1.0
C      1  0.4527940000000  0.4324640000000  0.4966190000000 1.0
C      1  0.4431600000000  0.4369590000000  0.5071390000000 1.0
C      1  0.4756490000000  0.4369590000000  0.4481460000000 1.0
C      1  0.5417930000000  0.4369620000000  0.4608150000000 1.0
C      1  0.5501840000000  0.4369630000000  0.5276370000000 1.0
C      1  0.4892260000000  0.4369610000000  0.5562670000000 1.0
C      1  0.4431560000000  0.5630370000000  0.5071370000000 1.0
C      1  0.4756440000000  0.5630370000000  0.4481450000000 1.0
C      1  0.5417880000000  0.5630400000000  0.4608130000000 1.0
C      1  0.5501800000000  0.5630410000000  0.5276350000000 1.0
C      1  0.4892210000000  0.5630390000000  0.5562650000000 1.0
C      1  0.4966960000000  0.5156960000000  0.5467920000000 1.0
C      1  0.4544760000000  0.5156940000000  0.5113180000000 1.0
C      1  0.4751680000000  0.5156940000000  0.4602020000000 1.0
C      1  0.5301760000000  0.5156960000000  0.4640860000000 1.0
C      1  0.5434810000000  0.5156980000000  0.5176010000000 1.0
C      1  0.4966970000000  0.4843050000000  0.5467930000000 1.0
C      1  0.4544770000000  0.4843030000000  0.5113180000000 1.0
C      1  0.4751690000000  0.4843030000000  0.4602030000000 1.0
C      1  0.5301770000000  0.4843050000000  0.4640860000000 1.0
C      1  0.5434820000000  0.4843060000000  0.5176020000000 1.0
C      1  0.5515220000000  0.5301750000000  0.5336240000000 1.0
C      1  0.4839420000000  0.5301730000000  0.5593910000000 1.0
C      1  0.4385520000000  0.5301710000000  0.5030820000000 1.0
C      1  0.4780800000000  0.5301710000000  0.4425130000000 1.0
C      1  0.5478990000000  0.5301740000000  0.4613890000000 1.0
C      1  0.5515240000000  0.4698290000000  0.5336250000000 1.0
C      1  0.4839440000000  0.4698270000000  0.5593920000000 1.0
C      1  0.4385540000000  0.4698250000000  0.5030820000000 1.0
C      1  0.4780820000000  0.4698260000000  0.4425130000000 1.0
C      1  0.5479010000000  0.4698280000000  0.4613900000000 1.0
C      1  0.4819490000000  0.5143070000000  0.5429910000000 1.0
C      1  0.4535350000000  0.5143050000000  0.4961170000000 1.0
C      1  0.4893340000000  0.5143060000000  0.4546100000000 1.0
C      1  0.5398720000000  0.5143080000000  0.4758300000000 1.0
C      1  0.5353080000000  0.5143080000000  0.5304520000000 1.0
C      1  0.4819500000000  0.4856930000000  0.5429910000000 1.0
C      1  0.4535360000000  0.4856920000000  0.4961180000000 1.0
C      1  0.4893350000000  0.4856920000000  0.4546100000000 1.0
C      1  0.5398730000000  0.4856940000000  0.4758300000000 1.0
C      1  0.5353090000000  0.4856950000000  0.5304530000000 1.0
C      1  0.5008740000000  0.4481440000000  0.5213430000000 1.0
C      1  0.4799730000000  0.4481430000000  0.5074250000000 1.0
C      1  0.4867520000000  0.4481430000000  0.4832460000000 1.0
C      1  0.5118420000000  0.4481440000000  0.4822220000000 1.0
C      1  0.5205690000000  0.4481450000000  0.5057670000000 1.0
C      1  0.5008700000000  0.5518560000000  0.5213420000000 1.0
C      1  0.4799690000000  0.5518550000000  0.5074240000000 1.0
C      1  0.4867480000000  0.5518550000000  0.4832450000000 1.0
C      1  0.5118380000000  0.5518560000000  0.4822200000000 1.0
C      1  0.5205660000000  0.5518570000000  0.5057650000000 1.0
C      1  0.4963420000000  0.5517540000000  0.4586220000000 1.0
C      1  0.5382210000000  0.5517560000000  0.4837360000000 1.0
C      1  0.5272770000000  0.5517560000000  0.5313250000000 1.0
C      1  0.4786350000000  0.5517540000000  0.5356230000000 1.0
C      1  0.4595160000000  0.5517530000000  0.4906900000000 1.0
C      1  0.4963460000000  0.4482450000000  0.4586230000000 1.0
C      1  0.5382240000000  0.4482460000000  0.4837370000000 1.0
C      1  0.5272810000000  0.4482470000000  0.5313270000000 1.0
C      1  0.4786390000000  0.4482450000000  0.5356250000000 1.0
C      1  0.4595200000000  0.4482440000000  0.4906910000000 1.0
END
