TITL C-526663-2196-101 35.166081078182 1000000 -1638.49786226655 0 0 240 (C1) n - 1
REM
REM in /scratch/bkarasulu/Only-C240
REM
REM
REM
REM
REM
REM ./C.cell (db1db5b03a21c153a00b653f6831bbfd)
REM
REM compiler GCC version 9.2.1 20190827 (Red Hat 9.2.1-1)
REM options -cpp -mtune=generic -march=x86-64 -g -O0 -fpre-include=/usr/include/finclude/math-vector-fortran.h
REM seed -91426247 -670334821 1444874407 860838686 -210114533 -299641741 -1613929713 -420373162 538034548 -1149531480 1594536333 -937498643 -674176631 987818108 -1187126579 1521414236 -1921555053 2146798629 -1818179708 422743518 318693665 1206793669 1848259948 1331951180 -461700936 1334450751 -730042002 854242972 -2112439261 -1435859091 143655767 2076273031 1546288299
REM
CELL 1.54180  100.00000  100.00000  100.00000   90.00000   90.00000   90.00000
LATT -1
SFAC C  
C      1  0.5761910000000  0.4641480000000  0.5020810000000 1.0
C      1  0.4795580000000  0.4617830000000  0.5746380000000 1.0
C      1  0.4293760000000  0.4565030000000  0.4823560000000 1.0
C      1  0.5144850000000  0.4713750000000  0.4254180000000 1.0
C      1  0.5745670000000  0.5402710000000  0.5188530000000 1.0
C      1  0.4947760000000  0.5380440000000  0.5754540000000 1.0
C      1  0.4200490000000  0.5239600000000  0.4958930000000 1.0
C      1  0.5255900000000  0.5288350000000  0.4388270000000 1.0
C      1  0.5593170000000  0.5085490000000  0.5127090000000 1.0
C      1  0.4877170000000  0.5075450000000  0.5589200000000 1.0
C      1  0.4360380000000  0.5060020000000  0.4887430000000 1.0
C      1  0.5183180000000  0.5063680000000  0.4419880000000 1.0
C      1  0.5594910000000  0.4945000000000  0.5096680000000 1.0
C      1  0.4847950000000  0.4935020000000  0.5589640000000 1.0
C      1  0.4379640000000  0.4916610000000  0.4881240000000 1.0
C      1  0.5170980000000  0.4917520000000  0.4399910000000 1.0
C      1  0.4975140000000  0.5333600000000  0.4607920000000 1.0
C      1  0.5465700000000  0.5406090000000  0.4989850000000 1.0
C      1  0.5031890000000  0.5366650000000  0.5424720000000 1.0
C      1  0.4533100000000  0.5379690000000  0.4993460000000 1.0
C      1  0.5003950000000  0.4605500000000  0.4547460000000 1.0
C      1  0.5432740000000  0.4648980000000  0.4948290000000 1.0
C      1  0.4991110000000  0.4616640000000  0.5466040000000 1.0
C      1  0.4540080000000  0.4617770000000  0.5037210000000 1.0
C      1  0.5530700000000  0.5380830000000  0.4295660000000 1.0
C      1  0.5745490000000  0.5321570000000  0.5533840000000 1.0
C      1  0.4678210000000  0.5466790000000  0.5684310000000 1.0
C      1  0.4242750000000  0.5414880000000  0.4592780000000 1.0
C      1  0.5472930000000  0.4573020000000  0.4245740000000 1.0
C      1  0.5694980000000  0.4549270000000  0.5287070000000 1.0
C      1  0.4448960000000  0.4691430000000  0.5751800000000 1.0
C      1  0.4210790000000  0.4595270000000  0.4554110000000 1.0
C      1  0.4272060000000  0.4568760000000  0.5397570000000 1.0
C      1  0.4510380000000  0.4349870000000  0.4480370000000 1.0
C      1  0.5707270000000  0.4535940000000  0.4569640000000 1.0
C      1  0.5476130000000  0.4410480000000  0.5565190000000 1.0
C      1  0.4405780000000  0.5603220000000  0.5455240000000 1.0
C      1  0.4503630000000  0.5626020000000  0.4423910000000 1.0
C      1  0.5717180000000  0.5560800000000  0.4663730000000 1.0
C      1  0.5387100000000  0.5433510000000  0.5706880000000 1.0
C      1  0.4660170000000  0.5598250000000  0.4974310000000 1.0
C      1  0.5010080000000  0.5585870000000  0.4674900000000 1.0
C      1  0.5333730000000  0.5619940000000  0.5018550000000 1.0
C      1  0.4983550000000  0.5592050000000  0.5316870000000 1.0
C      1  0.4675070000000  0.4406700000000  0.5007040000000 1.0
C      1  0.5029540000000  0.4382450000000  0.4670120000000 1.0
C      1  0.5328360000000  0.4428190000000  0.5004700000000 1.0
C      1  0.4973430000000  0.4400910000000  0.5338060000000 1.0
C      1  0.4351520000000  0.4680550000000  0.4868470000000 1.0
C      1  0.5163050000000  0.4657780000000  0.4369940000000 1.0
C      1  0.5659020000000  0.4728360000000  0.5032860000000 1.0
C      1  0.4827260000000  0.4708580000000  0.5652440000000 1.0
C      1  0.4312720000000  0.5297710000000  0.4955890000000 1.0
C      1  0.5170780000000  0.5355200000000  0.4454550000000 1.0
C      1  0.5651990000000  0.5312640000000  0.5154190000000 1.0
C      1  0.4938570000000  0.5293400000000  0.5651740000000 1.0
C      1  0.5397240000000  0.4478800000000  0.4773940000000 1.0
C      1  0.5189650000000  0.4503480000000  0.5371690000000 1.0
C      1  0.4596240000000  0.4472520000000  0.5228340000000 1.0
C      1  0.4812350000000  0.4478030000000  0.4639820000000 1.0
C      1  0.5386840000000  0.5534680000000  0.4796360000000 1.0
C      1  0.5209360000000  0.5527570000000  0.5386000000000 1.0
C      1  0.4617730000000  0.5498980000000  0.5190280000000 1.0
C      1  0.4789910000000  0.5504090000000  0.4611050000000 1.0
C      1  0.5143820000000  0.4211740000000  0.5314760000000 1.0
C      1  0.4694390000000  0.4188600000000  0.5142150000000 1.0
C      1  0.4870550000000  0.4185170000000  0.4711740000000 1.0
C      1  0.5309060000000  0.4197050000000  0.4890390000000 1.0
C      1  0.5116730000000  0.5811340000000  0.5302860000000 1.0
C      1  0.4676080000000  0.5795290000000  0.5137730000000 1.0
C      1  0.4856510000000  0.5793750000000  0.4680590000000 1.0
C      1  0.5283980000000  0.5819190000000  0.4863120000000 1.0
C      1  0.5681980000000  0.4832620000000  0.5131300000000 1.0
C      1  0.4770630000000  0.4839780000000  0.5671080000000 1.0
C      1  0.4311930000000  0.4808760000000  0.4810170000000 1.0
C      1  0.5229150000000  0.4823450000000  0.4300770000000 1.0
C      1  0.5672160000000  0.5179980000000  0.5207600000000 1.0
C      1  0.4841020000000  0.5188560000000  0.5674970000000 1.0
C      1  0.4245410000000  0.5147370000000  0.4856170000000 1.0
C      1  0.5282380000000  0.5155890000000  0.4361760000000 1.0
C      1  0.4372600000000  0.4520860000000  0.5338000000000 1.0
C      1  0.4599320000000  0.4428800000000  0.4525230000000 1.0
C      1  0.5601290000000  0.4503350000000  0.4629070000000 1.0
C      1  0.5389330000000  0.4484370000000  0.5508780000000 1.0
C      1  0.4467450000000  0.5524920000000  0.5376800000000 1.0
C      1  0.4587810000000  0.5546160000000  0.4475970000000 1.0
C      1  0.5602660000000  0.5508400000000  0.4676490000000 1.0
C      1  0.5323820000000  0.5476580000000  0.5606230000000 1.0
C      1  0.5021620000000  0.5050830000000  0.4608870000000 1.0
C      1  0.5374440000000  0.5102680000000  0.5011740000000 1.0
C      1  0.5000770000000  0.5053410000000  0.5370170000000 1.0
C      1  0.4592340000000  0.5070160000000  0.4956570000000 1.0
C      1  0.5043540000000  0.4911120000000  0.4609220000000 1.0
C      1  0.5377740000000  0.4966530000000  0.4971180000000 1.0
C      1  0.4958750000000  0.4918020000000  0.5369150000000 1.0
C      1  0.4595400000000  0.4935060000000  0.5002650000000 1.0
C      1  0.4714060000000  0.5222580000000  0.5734040000000 1.0
C      1  0.4215050000000  0.5183340000000  0.4717900000000 1.0
C      1  0.5408500000000  0.5149750000000  0.4293990000000 1.0
C      1  0.5740760000000  0.5158390000000  0.5331920000000 1.0
C      1  0.4646560000000  0.4859020000000  0.5740750000000 1.0
C      1  0.4243320000000  0.4816780000000  0.4683890000000 1.0
C      1  0.5362670000000  0.4805030000000  0.4247050000000 1.0
C      1  0.5740060000000  0.4795780000000  0.5257450000000 1.0
C      1  0.5646500000000  0.4940330000000  0.4490870000000 1.0
C      1  0.5523560000000  0.4975090000000  0.5607820000000 1.0
C      1  0.4361060000000  0.4913060000000  0.5571550000000 1.0
C      1  0.4439040000000  0.4914160000000  0.4421010000000 1.0
C      1  0.5645920000000  0.5065610000000  0.4501430000000 1.0
C      1  0.5567150000000  0.5095810000000  0.5612580000000 1.0
C      1  0.4361230000000  0.5033290000000  0.5526760000000 1.0
C      1  0.4446450000000  0.5035810000000  0.4392670000000 1.0
C      1  0.4683190000000  0.5196150000000  0.5098950000000 1.0
C      1  0.4877060000000  0.5234920000000  0.4663580000000 1.0
C      1  0.5268280000000  0.5233070000000  0.4859210000000 1.0
C      1  0.5176550000000  0.5196810000000  0.5295210000000 1.0
C      1  0.4686060000000  0.4803200000000  0.5182700000000 1.0
C      1  0.4874700000000  0.4784950000000  0.4704410000000 1.0
C      1  0.5307410000000  0.4820220000000  0.4795170000000 1.0
C      1  0.5113200000000  0.4799680000000  0.5265840000000 1.0
C      1  0.4209380000000  0.5063080000000  0.4647040000000 1.0
C      1  0.5465180000000  0.5033930000000  0.4245430000000 1.0
C      1  0.5767830000000  0.5024670000000  0.5367180000000 1.0
C      1  0.4630740000000  0.5112460000000  0.5761060000000 1.0
C      1  0.4215340000000  0.4942190000000  0.4625280000000 1.0
C      1  0.5449190000000  0.4912110000000  0.4229670000000 1.0
C      1  0.5765530000000  0.4904730000000  0.5342890000000 1.0
C      1  0.4607930000000  0.4992220000000  0.5765110000000 1.0
C      1  0.5492230000000  0.5165730000000  0.5061120000000 1.0
C      1  0.4966030000000  0.5129040000000  0.5485670000000 1.0
C      1  0.4471160000000  0.5136290000000  0.4930230000000 1.0
C      1  0.5089400000000  0.5129740000000  0.4511160000000 1.0
C      1  0.5491860000000  0.4890480000000  0.5008410000000 1.0
C      1  0.4914430000000  0.4855250000000  0.5488820000000 1.0
C      1  0.4484610000000  0.4855100000000  0.4962480000000 1.0
C      1  0.5091690000000  0.4844220000000  0.4495090000000 1.0
C      1  0.5337270000000  0.5281910000000  0.4769150000000 1.0
C      1  0.5264340000000  0.5270190000000  0.5339810000000 1.0
C      1  0.4622770000000  0.5236600000000  0.5197950000000 1.0
C      1  0.4752270000000  0.5254970000000  0.4622520000000 1.0
C      1  0.5363770000000  0.4744240000000  0.4716740000000 1.0
C      1  0.5205390000000  0.4758110000000  0.5335320000000 1.0
C      1  0.4635520000000  0.4730520000000  0.5267580000000 1.0
C      1  0.4779930000000  0.4728900000000  0.4651310000000 1.0
C      1  0.4486950000000  0.4806040000000  0.4477990000000 1.0
C      1  0.5593920000000  0.4820850000000  0.4497030000000 1.0
C      1  0.5455140000000  0.4877660000000  0.5551270000000 1.0
C      1  0.4430140000000  0.4811400000000  0.5524370000000 1.0
C      1  0.4505830000000  0.5154520000000  0.4398590000000 1.0
C      1  0.5569060000000  0.5166350000000  0.4537560000000 1.0
C      1  0.5519370000000  0.5198850000000  0.5545720000000 1.0
C      1  0.4413550000000  0.5131650000000  0.5455950000000 1.0
C      1  0.4687280000000  0.4281250000000  0.5058420000000 1.0
C      1  0.4961910000000  0.4267040000000  0.4691290000000 1.0
C      1  0.5320730000000  0.4298080000000  0.4963930000000 1.0
C      1  0.5043510000000  0.4285760000000  0.5317360000000 1.0
C      1  0.4670970000000  0.5716110000000  0.5041490000000 1.0
C      1  0.4947050000000  0.5708200000000  0.4673770000000 1.0
C      1  0.5306730000000  0.5737890000000  0.4955480000000 1.0
C      1  0.5034060000000  0.5717960000000  0.5309040000000 1.0
C      1  0.4676330000000  0.4663980000000  0.4585490000000 1.0
C      1  0.5436350000000  0.4669410000000  0.4628630000000 1.0
C      1  0.5302820000000  0.4707940000000  0.5421600000000 1.0
C      1  0.4560000000000  0.4664330000000  0.5360400000000 1.0
C      1  0.4668570000000  0.5311830000000  0.4530460000000 1.0
C      1  0.5429040000000  0.5333130000000  0.4679430000000 1.0
C      1  0.5353320000000  0.5341260000000  0.5415170000000 1.0
C      1  0.4544820000000  0.5294840000000  0.5297930000000 1.0
C      1  0.4712820000000  0.4896720000000  0.5083800000000 1.0
C      1  0.4996080000000  0.4847090000000  0.4729900000000 1.0
C      1  0.5268460000000  0.4917020000000  0.4886340000000 1.0
C      1  0.4988260000000  0.4854930000000  0.5239130000000 1.0
C      1  0.4717530000000  0.5141070000000  0.4976180000000 1.0
C      1  0.4933500000000  0.5108980000000  0.4708370000000 1.0
C      1  0.5244490000000  0.5165790000000  0.4979080000000 1.0
C      1  0.5082650000000  0.5101810000000  0.5257960000000 1.0
C      1  0.5407770000000  0.4678590000000  0.4225260000000 1.0
C      1  0.5736310000000  0.4667720000000  0.5300860000000 1.0
C      1  0.4556790000000  0.4755380000000  0.5763290000000 1.0
C      1  0.4208530000000  0.4701320000000  0.4621150000000 1.0
C      1  0.5471290000000  0.5271760000000  0.4290980000000 1.0
C      1  0.5759680000000  0.5259960000000  0.5424950000000 1.0
C      1  0.4667270000000  0.5349370000000  0.5729790000000 1.0
C      1  0.4227810000000  0.5307760000000  0.4658630000000 1.0
C      1  0.5477130000000  0.5465210000000  0.4705710000000 1.0
C      1  0.5301180000000  0.5460010000000  0.5473980000000 1.0
C      1  0.4534780000000  0.5438380000000  0.5294500000000 1.0
C      1  0.4679520000000  0.5456610000000  0.4524570000000 1.0
C      1  0.5479650000000  0.4541160000000  0.4673030000000 1.0
C      1  0.5297600000000  0.4566380000000  0.5448970000000 1.0
C      1  0.4504620000000  0.4541090000000  0.5315160000000 1.0
C      1  0.4691580000000  0.4522160000000  0.4567380000000 1.0
C      1  0.5280240000000  0.4464360000000  0.5129580000000 1.0
C      1  0.4837860000000  0.4412010000000  0.5303640000000 1.0
C      1  0.4728440000000  0.4437510000000  0.4883280000000 1.0
C      1  0.5161850000000  0.4388680000000  0.4712990000000 1.0
C      1  0.5290360000000  0.5598010000000  0.5149390000000 1.0
C      1  0.4855120000000  0.5572270000000  0.5266430000000 1.0
C      1  0.4710330000000  0.5587720000000  0.4845190000000 1.0
C      1  0.5140310000000  0.5577720000000  0.4726840000000 1.0
C      1  0.5489720000000  0.5247570000000  0.4587310000000 1.0
C      1  0.5466740000000  0.5277620000000  0.5465860000000 1.0
C      1  0.4471870000000  0.5215040000000  0.5383460000000 1.0
C      1  0.4583400000000  0.5235550000000  0.4453130000000 1.0
C      1  0.5504880000000  0.4739980000000  0.4530100000000 1.0
C      1  0.5385680000000  0.4793790000000  0.5489880000000 1.0
C      1  0.4508850000000  0.4732510000000  0.5470400000000 1.0
C      1  0.4577230000000  0.4739490000000  0.4532700000000 1.0
C      1  0.5067310000000  0.5492620000000  0.5384570000000 1.0
C      1  0.4594110000000  0.5488620000000  0.5045750000000 1.0
C      1  0.4934900000000  0.5474230000000  0.4622280000000 1.0
C      1  0.5404490000000  0.5520160000000  0.4940400000000 1.0
C      1  0.5047400000000  0.4508230000000  0.5400870000000 1.0
C      1  0.4597310000000  0.4501830000000  0.5085940000000 1.0
C      1  0.4954480000000  0.4492530000000  0.4606590000000 1.0
C      1  0.5394180000000  0.4521910000000  0.4914990000000 1.0
C      1  0.4742020000000  0.5533240000000  0.5237090000000 1.0
C      1  0.4737630000000  0.5541570000000  0.4733960000000 1.0
C      1  0.5258700000000  0.5554060000000  0.4750740000000 1.0
C      1  0.5261530000000  0.5565960000000  0.5264210000000 1.0
C      1  0.4720460000000  0.4440540000000  0.5282260000000 1.0
C      1  0.4773390000000  0.4460460000000  0.4771630000000 1.0
C      1  0.5277910000000  0.4427780000000  0.4729590000000 1.0
C      1  0.5237170000000  0.4483500000000  0.5242820000000 1.0
C      1  0.5076210000000  0.5276740000000  0.4526530000000 1.0
C      1  0.5528320000000  0.5309520000000  0.5061040000000 1.0
C      1  0.4993790000000  0.5269220000000  0.5506470000000 1.0
C      1  0.4451080000000  0.5281020000000  0.4954410000000 1.0
C      1  0.5079810000000  0.4696090000000  0.4478460000000 1.0
C      1  0.5512640000000  0.4749220000000  0.4983270000000 1.0
C      1  0.4918720000000  0.4712510000000  0.5527750000000 1.0
C      1  0.4467280000000  0.4707860000000  0.4968280000000 1.0
C      1  0.5133070000000  0.5077930000000  0.5007750000000 1.0
C      1  0.5065240000000  0.5045410000000  0.5127330000000 1.0
C      1  0.4834380000000  0.5062270000000  0.4947390000000 1.0
C      1  0.4911580000000  0.5039160000000  0.4832470000000 1.0
C      1  0.5138490000000  0.4972220000000  0.4902200000000 1.0
C      1  0.4958990000000  0.4938820000000  0.5126780000000 1.0
C      1  0.4838610000000  0.4959890000000  0.5057930000000 1.0
C      1  0.5016920000000  0.4931860000000  0.4842490000000 1.0
END
