TITL C-526663-2196-39 -0.0331823652044478 1000000 -1628.17819427222 0 0 240 (C1) n - 1
REM
REM in /scratch/bkarasulu/Only-C240
REM
REM
REM
REM
REM
REM ./C.cell (db1db5b03a21c153a00b653f6831bbfd)
REM
REM compiler GCC version 9.2.1 20190827 (Red Hat 9.2.1-1)
REM options -cpp -mtune=generic -march=x86-64 -g -O0 -fpre-include=/usr/include/finclude/math-vector-fortran.h
REM seed 1495689882 36475891 324710545 -880868016 888606990 -145218304 -578152203 526971127 2084031046 -1678511439 201029583 1704700937 237282197 -2080614655 -1030235838 -1923629548 -2119609998 2062981956 592938412 355924696 1156672090 -510937860 882236403 1550892647 1588899821 -898839813 527843498 291782957 2031583311 622167408 1104081224 1709030689 658826547
REM
CELL 1.54180  100.00000  100.00000  100.00000   90.00000   90.00000   90.00000
LATT -1
SFAC C  
C      1  0.4701480000000  0.5782000000000  0.5083250000000 1.0
C      1  0.5119220000000  0.4670900000000  0.5815080000000 1.0
C      1  0.5814670000000  0.5082740000000  0.4720690000000 1.0
C      1  0.5309600000000  0.5750740000000  0.4774250000000 1.0
C      1  0.4683100000000  0.4235020000000  0.4866160000000 1.0
C      1  0.5315590000000  0.4201260000000  0.5123590000000 1.0
C      1  0.4794910000000  0.4765590000000  0.4216170000000 1.0
C      1  0.5097970000000  0.5384120000000  0.4224740000000 1.0
C      1  0.4897930000000  0.5278190000000  0.5797660000000 1.0
C      1  0.4199590000000  0.5123050000000  0.5285090000000 1.0
C      1  0.5756620000000  0.4844340000000  0.5348900000000 1.0
C      1  0.4242260000000  0.4819370000000  0.4685500000000 1.0
C      1  0.4713170000000  0.4285830000000  0.5161350000000 1.0
C      1  0.5175510000000  0.5252070000000  0.5793350000000 1.0
C      1  0.5785890000000  0.4788630000000  0.4736930000000 1.0
C      1  0.5286730000000  0.4228760000000  0.4839160000000 1.0
C      1  0.4694800000000  0.5710330000000  0.4815350000000 1.0
C      1  0.5308240000000  0.5825040000000  0.5064830000000 1.0
C      1  0.4783160000000  0.5356960000000  0.4252210000000 1.0
C      1  0.5088790000000  0.4781440000000  0.4174680000000 1.0
C      1  0.4842830000000  0.4693310000000  0.5773810000000 1.0
C      1  0.4236590000000  0.4826470000000  0.5301300000000 1.0
C      1  0.5779740000000  0.5124760000000  0.5320480000000 1.0
C      1  0.4201890000000  0.5093650000000  0.4689520000000 1.0
C      1  0.4862970000000  0.4555710000000  0.5576420000000 1.0
C      1  0.5612380000000  0.4870050000000  0.4561080000000 1.0
C      1  0.4531780000000  0.5540420000000  0.4862220000000 1.0
C      1  0.5048380000000  0.4578650000000  0.4330890000000 1.0
C      1  0.4879510000000  0.5443850000000  0.4474520000000 1.0
C      1  0.5177660000000  0.5416420000000  0.5610060000000 1.0
C      1  0.4415030000000  0.4939840000000  0.5451430000000 1.0
C      1  0.5570280000000  0.5143270000000  0.5448820000000 1.0
C      1  0.4406010000000  0.5123190000000  0.4557060000000 1.0
C      1  0.5465930000000  0.5616060000000  0.5032090000000 1.0
C      1  0.4539530000000  0.4459320000000  0.5076870000000 1.0
C      1  0.5438160000000  0.4417910000000  0.4852060000000 1.0
C      1  0.4913210000000  0.5425900000000  0.5603650000000 1.0
C      1  0.5627460000000  0.5016760000000  0.4554660000000 1.0
C      1  0.4528700000000  0.4437720000000  0.4926600000000 1.0
C      1  0.5032240000000  0.5453900000000  0.4460800000000 1.0
C      1  0.4900930000000  0.4566530000000  0.4354210000000 1.0
C      1  0.5128680000000  0.4554040000000  0.5601590000000 1.0
C      1  0.4392990000000  0.5084360000000  0.5457740000000 1.0
C      1  0.5575000000000  0.4879180000000  0.5501550000000 1.0
C      1  0.4431690000000  0.4851070000000  0.4535880000000 1.0
C      1  0.5454150000000  0.4395110000000  0.5121100000000 1.0
C      1  0.4554670000000  0.5589270000000  0.5126040000000 1.0
C      1  0.5467570000000  0.5591280000000  0.4888100000000 1.0
C      1  0.4550220000000  0.4599760000000  0.5056920000000 1.0
C      1  0.5074450000000  0.4568980000000  0.4470880000000 1.0
C      1  0.4532700000000  0.5071970000000  0.4554980000000 1.0
C      1  0.5442120000000  0.4536990000000  0.4922470000000 1.0
C      1  0.4549310000000  0.5426160000000  0.4941110000000 1.0
C      1  0.5447850000000  0.5514460000000  0.5121630000000 1.0
C      1  0.4925830000000  0.4562500000000  0.5456120000000 1.0
C      1  0.5133860000000  0.5465910000000  0.5488070000000 1.0
C      1  0.4897990000000  0.5427640000000  0.4612900000000 1.0
C      1  0.5464650000000  0.5077430000000  0.5505750000000 1.0
C      1  0.4551980000000  0.4956570000000  0.5415320000000 1.0
C      1  0.5486660000000  0.4821060000000  0.4580820000000 1.0
C      1  0.4554720000000  0.5455090000000  0.5089720000000 1.0
C      1  0.5042350000000  0.5439710000000  0.4599380000000 1.0
C      1  0.4545680000000  0.4925310000000  0.4535740000000 1.0
C      1  0.5437070000000  0.5472480000000  0.4831050000000 1.0
C      1  0.4538660000000  0.4578120000000  0.4905600000000 1.0
C      1  0.5449420000000  0.4524460000000  0.5074260000000 1.0
C      1  0.4990200000000  0.5485070000000  0.5505400000000 1.0
C      1  0.5084340000000  0.4576080000000  0.5470460000000 1.0
C      1  0.4929150000000  0.4547510000000  0.4492600000000 1.0
C      1  0.5447770000000  0.4932210000000  0.5510820000000 1.0
C      1  0.4533530000000  0.5111990000000  0.5441090000000 1.0
C      1  0.5517930000000  0.5091920000000  0.4576240000000 1.0
C      1  0.4146250000000  0.5133690000000  0.5172370000000 1.0
C      1  0.5203380000000  0.4160670000000  0.5158620000000 1.0
C      1  0.5111520000000  0.5281300000000  0.4153700000000 1.0
C      1  0.5856870000000  0.5114260000000  0.4834920000000 1.0
C      1  0.4209300000000  0.4780530000000  0.4798990000000 1.0
C      1  0.5797040000000  0.4797890000000  0.5241450000000 1.0
C      1  0.4791420000000  0.4178470000000  0.4836020000000 1.0
C      1  0.5187550000000  0.5766840000000  0.4745060000000 1.0
C      1  0.4811580000000  0.5838420000000  0.5095380000000 1.0
C      1  0.4857500000000  0.5174220000000  0.5852120000000 1.0
C      1  0.5150440000000  0.4773360000000  0.5878040000000 1.0
C      1  0.4762060000000  0.4880690000000  0.4177040000000 1.0
C      1  0.4206360000000  0.4789810000000  0.5184970000000 1.0
C      1  0.5191400000000  0.5866950000000  0.5086250000000 1.0
C      1  0.5098950000000  0.4902310000000  0.4143710000000 1.0
C      1  0.5813540000000  0.4766880000000  0.4857340000000 1.0
C      1  0.4137600000000  0.5118670000000  0.4792830000000 1.0
C      1  0.5840560000000  0.5139940000000  0.5213090000000 1.0
C      1  0.4806300000000  0.5746350000000  0.4774070000000 1.0
C      1  0.5174150000000  0.4179510000000  0.4817960000000 1.0
C      1  0.4827400000000  0.4236560000000  0.5176310000000 1.0
C      1  0.4816390000000  0.4800620000000  0.5830090000000 1.0
C      1  0.5198190000000  0.5148680000000  0.5857710000000 1.0
C      1  0.4747890000000  0.5256260000000  0.4185930000000 1.0
C      1  0.5739620000000  0.4860970000000  0.4632570000000 1.0
C      1  0.4599340000000  0.5654650000000  0.4898410000000 1.0
C      1  0.4912900000000  0.4604160000000  0.5695720000000 1.0
C      1  0.4291180000000  0.4916370000000  0.5385800000000 1.0
C      1  0.5686740000000  0.5074250000000  0.5406930000000 1.0
C      1  0.4301990000000  0.5045240000000  0.4606430000000 1.0
C      1  0.5405640000000  0.5749980000000  0.5009310000000 1.0
C      1  0.4614340000000  0.4338800000000  0.5086220000000 1.0
C      1  0.5383230000000  0.4304720000000  0.4905480000000 1.0
C      1  0.5026560000000  0.4679550000000  0.4236270000000 1.0
C      1  0.4868280000000  0.5424990000000  0.4334190000000 1.0
C      1  0.5116020000000  0.5348050000000  0.5711080000000 1.0
C      1  0.5755080000000  0.5008740000000  0.4625610000000 1.0
C      1  0.4600360000000  0.4314030000000  0.4940030000000 1.0
C      1  0.4968940000000  0.5359880000000  0.5714610000000 1.0
C      1  0.4270740000000  0.5063100000000  0.5384850000000 1.0
C      1  0.5680460000000  0.4928050000000  0.5428760000000 1.0
C      1  0.4318420000000  0.4897470000000  0.4598300000000 1.0
C      1  0.5397260000000  0.4289830000000  0.5054950000000 1.0
C      1  0.4607590000000  0.5686680000000  0.5044300000000 1.0
C      1  0.5408040000000  0.5721450000000  0.4860560000000 1.0
C      1  0.5018220000000  0.5438200000000  0.4320140000000 1.0
C      1  0.4881000000000  0.4669550000000  0.4258080000000 1.0
C      1  0.5060460000000  0.4596360000000  0.5712510000000 1.0
C      1  0.4842870000000  0.5328480000000  0.5357900000000 1.0
C      1  0.5246990000000  0.4865090000000  0.5370120000000 1.0
C      1  0.5296300000000  0.5255250000000  0.4808010000000 1.0
C      1  0.5159630000000  0.5283040000000  0.4763560000000 1.0
C      1  0.4795600000000  0.4611850000000  0.4720810000000 1.0
C      1  0.5205770000000  0.4741530000000  0.5290340000000 1.0
C      1  0.4723660000000  0.4841760000000  0.4688270000000 1.0
C      1  0.5308590000000  0.5134480000000  0.4721990000000 1.0
C      1  0.4733870000000  0.5225970000000  0.5340160000000 1.0
C      1  0.4676300000000  0.5249210000000  0.5198240000000 1.0
C      1  0.5320780000000  0.4725920000000  0.5185580000000 1.0
C      1  0.4683390000000  0.4701130000000  0.4737140000000 1.0
C      1  0.4835800000000  0.4703740000000  0.5259680000000 1.0
C      1  0.5331680000000  0.5203800000000  0.5317890000000 1.0
C      1  0.5326030000000  0.4763310000000  0.4845560000000 1.0
C      1  0.5167760000000  0.4682490000000  0.4674980000000 1.0
C      1  0.4815070000000  0.5239860000000  0.4767840000000 1.0
C      1  0.5186050000000  0.5373590000000  0.5252490000000 1.0
C      1  0.4758790000000  0.5128170000000  0.4676440000000 1.0
C      1  0.5261400000000  0.4799640000000  0.4711180000000 1.0
C      1  0.4713560000000  0.4893170000000  0.5231440000000 1.0
C      1  0.4742320000000  0.4765530000000  0.5155380000000 1.0
C      1  0.5313240000000  0.5308930000000  0.5208400000000 1.0
C      1  0.4721810000000  0.5238860000000  0.4890250000000 1.0
C      1  0.5090110000000  0.4945450000000  0.4599770000000 1.0
C      1  0.4546090000000  0.4997850000000  0.4908710000000 1.0
C      1  0.4935490000000  0.4685970000000  0.5019370000000 1.0
C      1  0.4960800000000  0.4899210000000  0.5367380000000 1.0
C      1  0.4940790000000  0.5009970000000  0.5543850000000 1.0
C      1  0.4998170000000  0.5053620000000  0.4439780000000 1.0
C      1  0.5381680000000  0.5112740000000  0.5022960000000 1.0
C      1  0.4554730000000  0.4837260000000  0.5034840000000 1.0
C      1  0.5550190000000  0.4975940000000  0.5026430000000 1.0
C      1  0.5056960000000  0.4527870000000  0.5068680000000 1.0
C      1  0.4915040000000  0.5456480000000  0.4840070000000 1.0
C      1  0.5063900000000  0.5536460000000  0.4964470000000 1.0
C      1  0.5111650000000  0.5075840000000  0.4513800000000 1.0
C      1  0.4647970000000  0.4904110000000  0.4951100000000 1.0
C      1  0.4930110000000  0.5518780000000  0.4975930000000 1.0
C      1  0.4875340000000  0.5013430000000  0.5409860000000 1.0
C      1  0.5031460000000  0.4913380000000  0.5496370000000 1.0
C      1  0.4962360000000  0.4951790000000  0.4532550000000 1.0
C      1  0.5395820000000  0.4952730000000  0.5032040000000 1.0
C      1  0.4456940000000  0.4937600000000  0.4990910000000 1.0
C      1  0.5531840000000  0.5108050000000  0.5014950000000 1.0
C      1  0.5055430000000  0.5485170000000  0.4824220000000 1.0
C      1  0.4938780000000  0.4541920000000  0.5001350000000 1.0
C      1  0.5051270000000  0.4671390000000  0.5103820000000 1.0
C      1  0.4813970000000  0.4925130000000  0.5874100000000 1.0
C      1  0.5822760000000  0.4765380000000  0.4988380000000 1.0
C      1  0.4933430000000  0.5766500000000  0.4753410000000 1.0
C      1  0.5103820000000  0.5030020000000  0.4120440000000 1.0
C      1  0.4733340000000  0.5132930000000  0.4141720000000 1.0
C      1  0.5193880000000  0.5023290000000  0.5905360000000 1.0
C      1  0.4193240000000  0.4770630000000  0.5055170000000 1.0
C      1  0.5879090000000  0.5137770000000  0.5087640000000 1.0
C      1  0.4103210000000  0.5131360000000  0.4920500000000 1.0
C      1  0.5062410000000  0.5890230000000  0.5092550000000 1.0
C      1  0.4950920000000  0.4191550000000  0.5176560000000 1.0
C      1  0.5044990000000  0.4146490000000  0.4813840000000 1.0
C      1  0.4830190000000  0.5048660000000  0.5883200000000 1.0
C      1  0.5882230000000  0.5127660000000  0.4962510000000 1.0
C      1  0.4919400000000  0.4145420000000  0.4821400000000 1.0
C      1  0.5108230000000  0.5156110000000  0.4119610000000 1.0
C      1  0.4737830000000  0.5005860000000  0.4142710000000 1.0
C      1  0.5175540000000  0.4900150000000  0.5913310000000 1.0
C      1  0.4108150000000  0.5136050000000  0.5045730000000 1.0
C      1  0.5818620000000  0.4773090000000  0.5113410000000 1.0
C      1  0.4193130000000  0.4763120000000  0.4929740000000 1.0
C      1  0.5072610000000  0.4160000000000  0.5174610000000 1.0
C      1  0.4936910000000  0.5881030000000  0.5097630000000 1.0
C      1  0.5058010000000  0.5774720000000  0.4746210000000 1.0
C      1  0.4779740000000  0.4858940000000  0.4922210000000 1.0
C      1  0.4937040000000  0.4620800000000  0.4734820000000 1.0
C      1  0.4820340000000  0.4898880000000  0.4784750000000 1.0
C      1  0.5324140000000  0.4839840000000  0.5093920000000 1.0
C      1  0.4713660000000  0.5134970000000  0.5117000000000 1.0
C      1  0.5295290000000  0.5203990000000  0.4950910000000 1.0
C      1  0.5081620000000  0.4762930000000  0.5206980000000 1.0
C      1  0.4943930000000  0.5319530000000  0.5264090000000 1.0
C      1  0.5083900000000  0.5160190000000  0.4772140000000 1.0
C      1  0.5211580000000  0.4985740000000  0.5315730000000 1.0
C      1  0.4800380000000  0.5090890000000  0.5325520000000 1.0
C      1  0.5191620000000  0.5057030000000  0.4755960000000 1.0
C      1  0.4735940000000  0.5141470000000  0.4983370000000 1.0
C      1  0.4944950000000  0.5140700000000  0.4776810000000 1.0
C      1  0.4852900000000  0.5033040000000  0.4748090000000 1.0
C      1  0.5298170000000  0.5223810000000  0.5079910000000 1.0
C      1  0.4828240000000  0.4779390000000  0.5024650000000 1.0
C      1  0.5325360000000  0.4849650000000  0.4956810000000 1.0
C      1  0.5064010000000  0.5315380000000  0.5231730000000 1.0
C      1  0.4961180000000  0.4810040000000  0.5261340000000 1.0
C      1  0.5061770000000  0.4661400000000  0.4762890000000 1.0
C      1  0.5229150000000  0.5110070000000  0.5314940000000 1.0
C      1  0.4752900000000  0.5029910000000  0.5209320000000 1.0
C      1  0.5166620000000  0.4921040000000  0.4716370000000 1.0
C      1  0.5413040000000  0.5416200000000  0.5186480000000 1.0
C      1  0.5192240000000  0.5449130000000  0.5366820000000 1.0
C      1  0.5433820000000  0.5178410000000  0.5412640000000 1.0
C      1  0.4608910000000  0.5314700000000  0.4894430000000 1.0
C      1  0.5390760000000  0.4646400000000  0.4861850000000 1.0
C      1  0.4594440000000  0.4720580000000  0.5112850000000 1.0
C      1  0.4842010000000  0.5382150000000  0.4737200000000 1.0
C      1  0.5166580000000  0.4618170000000  0.4555410000000 1.0
C      1  0.4853850000000  0.4599980000000  0.5340370000000 1.0
C      1  0.4651850000000  0.5119870000000  0.4603660000000 1.0
C      1  0.5365600000000  0.4816100000000  0.4606030000000 1.0
C      1  0.4636250000000  0.4886290000000  0.5343340000000 1.0
C      1  0.5393570000000  0.4621980000000  0.5150890000000 1.0
C      1  0.5168580000000  0.4626330000000  0.5378760000000 1.0
C      1  0.5330300000000  0.4865580000000  0.5479390000000 1.0
C      1  0.4577710000000  0.4665620000000  0.4810500000000 1.0
C      1  0.5390970000000  0.5365290000000  0.4796950000000 1.0
C      1  0.4604970000000  0.5355600000000  0.5168240000000 1.0
C      1  0.4873310000000  0.4561430000000  0.4619140000000 1.0
C      1  0.5125190000000  0.5413710000000  0.4714790000000 1.0
C      1  0.4879460000000  0.5410750000000  0.5466850000000 1.0
C      1  0.4675490000000  0.4892720000000  0.4574140000000 1.0
C      1  0.5410870000000  0.5119210000000  0.4634250000000 1.0
C      1  0.4619980000000  0.5211380000000  0.5434160000000 1.0
END
