TITL C-526663-2196-32 -17.6311969210885 1000000 -3659.83646761923 0 0 520 (T23) n - 1
REM
REM in /scratch/bkarasulu/Only-C240
REM
REM
REM
REM
REM
REM ./C.cell (db1db5b03a21c153a00b653f6831bbfd)
REM
REM compiler GCC version 9.2.1 20190827 (Red Hat 9.2.1-1)
REM options -cpp -mtune=generic -march=x86-64 -g -O0 -fpre-include=/usr/include/finclude/math-vector-fortran.h
REM seed 244000613 -711205755 -1830914855 -349574311 320876478 1635803179 895304148 -721635605 -338826954 -1542256647 1451392782 -33267757 1310016315 317887949 1553246732 -579783038 -286064312 -2014989771 582031241 -483327325 1477640526 2044378146 -1564440077 562996535 -122462072 334366902 -187623978 -2116854667 702737446 501790189 1247935807 -101236151 1501047248
REM
CELL 1.54180  100.00000  100.00000  100.00000   90.00000   90.00000   90.00000
LATT -1
SFAC C  
C      1  0.5842440000000  0.4859290000000  0.4913070000000 1.0
C      1  0.4915280000000  0.5841400000000  0.4858120000000 1.0
C      1  0.4860360000000  0.4914270000000  0.5840260000000 1.0
C      1  0.5842450000000  0.5145040000000  0.5089000000000 1.0
C      1  0.4164020000000  0.5145080000000  0.4913070000000 1.0
C      1  0.4164010000000  0.4859350000000  0.5089020000000 1.0
C      1  0.4915240000000  0.4162980000000  0.5143960000000 1.0
C      1  0.5091180000000  0.4162960000000  0.4858220000000 1.0
C      1  0.5091220000000  0.5841410000000  0.5143860000000 1.0
C      1  0.4860360000000  0.5090120000000  0.4161820000000 1.0
C      1  0.5146110000000  0.5090200000000  0.5840250000000 1.0
C      1  0.5146090000000  0.4914170000000  0.4161830000000 1.0
C      1  0.4276260000000  0.4773950000000  0.5072440000000 1.0
C      1  0.5074600000000  0.4275210000000  0.4772810000000 1.0
C      1  0.4774960000000  0.5073550000000  0.4274070000000 1.0
C      1  0.4276270000000  0.5230480000000  0.4929640000000 1.0
C      1  0.5730200000000  0.5230440000000  0.5072410000000 1.0
C      1  0.5730190000000  0.4773900000000  0.4929660000000 1.0
C      1  0.5074640000000  0.5729170000000  0.5229270000000 1.0
C      1  0.4931860000000  0.5729150000000  0.4772730000000 1.0
C      1  0.4931820000000  0.4275240000000  0.5229350000000 1.0
C      1  0.4774960000000  0.4930850000000  0.5728010000000 1.0
C      1  0.5231490000000  0.4930760000000  0.4274080000000 1.0
C      1  0.5231500000000  0.5073610000000  0.5728000000000 1.0
C      1  0.4639840000000  0.5122510000000  0.4297320000000 1.0
C      1  0.4299500000000  0.4638830000000  0.5121410000000 1.0
C      1  0.5123560000000  0.4298450000000  0.4637690000000 1.0
C      1  0.4639840000000  0.4881890000000  0.5704770000000 1.0
C      1  0.5366610000000  0.4881790000000  0.4297330000000 1.0
C      1  0.5366620000000  0.5122570000000  0.5704750000000 1.0
C      1  0.4299520000000  0.5365590000000  0.4880670000000 1.0
C      1  0.5706960000000  0.5365560000000  0.5121370000000 1.0
C      1  0.5706940000000  0.4638780000000  0.4880710000000 1.0
C      1  0.5123600000000  0.5705930000000  0.5364390000000 1.0
C      1  0.4882900000000  0.5705890000000  0.4637620000000 1.0
C      1  0.4882860000000  0.4298500000000  0.5364460000000 1.0
C      1  0.4306530000000  0.4718160000000  0.5361040000000 1.0
C      1  0.5363190000000  0.4305470000000  0.4717000000000 1.0
C      1  0.4719160000000  0.5362140000000  0.4304320000000 1.0
C      1  0.4306540000000  0.5286260000000  0.4641050000000 1.0
C      1  0.5699940000000  0.5286260000000  0.5361000000000 1.0
C      1  0.5699920000000  0.4718080000000  0.4641070000000 1.0
C      1  0.5363230000000  0.5698890000000  0.5285070000000 1.0
C      1  0.4643270000000  0.5698880000000  0.4716930000000 1.0
C      1  0.4643230000000  0.4305520000000  0.5285150000000 1.0
C      1  0.4719150000000  0.4642260000000  0.5697760000000 1.0
C      1  0.5287290000000  0.4642170000000  0.4304360000000 1.0
C      1  0.5287320000000  0.5362200000000  0.5697720000000 1.0
C      1  0.5357590000000  0.5440290000000  0.5242030000000 1.0
C      1  0.5244260000000  0.5356550000000  0.5439110000000 1.0
C      1  0.5441330000000  0.5243220000000  0.5355370000000 1.0
C      1  0.5357560000000  0.4564070000000  0.4760040000000 1.0
C      1  0.4648880000000  0.4564120000000  0.5242080000000 1.0
C      1  0.4648900000000  0.5440280000000  0.4760000000000 1.0
C      1  0.5244240000000  0.4647820000000  0.4562960000000 1.0
C      1  0.4762200000000  0.4647880000000  0.5439150000000 1.0
C      1  0.4762220000000  0.5356520000000  0.4562930000000 1.0
C      1  0.5441320000000  0.4761140000000  0.4646710000000 1.0
C      1  0.4565130000000  0.4761200000000  0.5355400000000 1.0
C      1  0.4565140000000  0.5243200000000  0.4646680000000 1.0
C      1  0.4407410000000  0.5310560000000  0.5339500000000 1.0
C      1  0.5341690000000  0.4406370000000  0.5309410000000 1.0
C      1  0.5311580000000  0.5340630000000  0.4405190000000 1.0
C      1  0.4407390000000  0.4693850000000  0.4662580000000 1.0
C      1  0.5599050000000  0.4693860000000  0.5339530000000 1.0
C      1  0.5599070000000  0.5310490000000  0.4662540000000 1.0
C      1  0.5341720000000  0.5598000000000  0.4692670000000 1.0
C      1  0.4664770000000  0.5598050000000  0.5309350000000 1.0
C      1  0.4664740000000  0.4406350000000  0.4692740000000 1.0
C      1  0.5311560000000  0.4663740000000  0.5596890000000 1.0
C      1  0.4694880000000  0.4663690000000  0.4405230000000 1.0
C      1  0.4694910000000  0.5340710000000  0.5596850000000 1.0
C      1  0.4501390000000  0.5398580000000  0.5404380000000 1.0
C      1  0.5406580000000  0.4500350000000  0.5397420000000 1.0
C      1  0.5399590000000  0.5405520000000  0.4499170000000 1.0
C      1  0.4501370000000  0.4605830000000  0.4597700000000 1.0
C      1  0.5505070000000  0.4605850000000  0.5404420000000 1.0
C      1  0.5505090000000  0.5398510000000  0.4597650000000 1.0
C      1  0.5406610000000  0.5504010000000  0.4604660000000 1.0
C      1  0.4599880000000  0.5504070000000  0.5397370000000 1.0
C      1  0.4599850000000  0.4500330000000  0.4604720000000 1.0
C      1  0.5399570000000  0.4598840000000  0.5502910000000 1.0
C      1  0.4606860000000  0.4598810000000  0.4499210000000 1.0
C      1  0.4606890000000  0.5405590000000  0.5502870000000 1.0
C      1  0.5238160000000  0.4858550000000  0.5257940000000 1.0
C      1  0.5260130000000  0.5237110000000  0.4857370000000 1.0
C      1  0.4859590000000  0.5259100000000  0.5235960000000 1.0
C      1  0.5238170000000  0.5145820000000  0.4744140000000 1.0
C      1  0.4768300000000  0.5145860000000  0.5257920000000 1.0
C      1  0.4768290000000  0.4858530000000  0.4744160000000 1.0
C      1  0.5260110000000  0.4767260000000  0.5144700000000 1.0
C      1  0.4746330000000  0.4767250000000  0.4857400000000 1.0
C      1  0.4746350000000  0.5237140000000  0.5144680000000 1.0
C      1  0.4859570000000  0.4745290000000  0.4766120000000 1.0
C      1  0.5146880000000  0.4745310000000  0.5235990000000 1.0
C      1  0.5146890000000  0.5259060000000  0.4766090000000 1.0
C      1  0.5457770000000  0.4985260000000  0.4776910000000 1.0
C      1  0.4779110000000  0.5456730000000  0.4984110000000 1.0
C      1  0.4986320000000  0.4778090000000  0.5455590000000 1.0
C      1  0.5457770000000  0.5019100000000  0.5225170000000 1.0
C      1  0.4548690000000  0.5019100000000  0.4776910000000 1.0
C      1  0.4548690000000  0.4985310000000  0.5225170000000 1.0
C      1  0.4779090000000  0.4547660000000  0.5017980000000 1.0
C      1  0.5227350000000  0.4547650000000  0.4984150000000 1.0
C      1  0.5227370000000  0.5456720000000  0.5017920000000 1.0
C      1  0.4986320000000  0.5226300000000  0.4546490000000 1.0
C      1  0.5020150000000  0.5226340000000  0.5455560000000 1.0
C      1  0.5020130000000  0.4778040000000  0.4546510000000 1.0
C      1  0.5708460000000  0.5055530000000  0.5283350000000 1.0
C      1  0.5285560000000  0.5707410000000  0.5054340000000 1.0
C      1  0.5056580000000  0.5284540000000  0.5706250000000 1.0
C      1  0.5708450000000  0.4948810000000  0.4718730000000 1.0
C      1  0.4298010000000  0.4948880000000  0.5283360000000 1.0
C      1  0.4298010000000  0.5055540000000  0.4718730000000 1.0
C      1  0.5285520000000  0.4296960000000  0.4947730000000 1.0
C      1  0.4720900000000  0.4296980000000  0.5054420000000 1.0
C      1  0.4720940000000  0.5707420000000  0.4947660000000 1.0
C      1  0.5056560000000  0.4719840000000  0.4295830000000 1.0
C      1  0.4949880000000  0.4719920000000  0.5706280000000 1.0
C      1  0.4949890000000  0.5284470000000  0.4295800000000 1.0
C      1  0.5358210000000  0.4833120000000  0.4440550000000 1.0
C      1  0.4442750000000  0.5357180000000  0.4831990000000 1.0
C      1  0.4834180000000  0.4441720000000  0.5356050000000 1.0
C      1  0.5358220000000  0.5171240000000  0.5561520000000 1.0
C      1  0.4648250000000  0.5171200000000  0.4440540000000 1.0
C      1  0.4648240000000  0.4833200000000  0.5561540000000 1.0
C      1  0.4442730000000  0.4647230000000  0.5170090000000 1.0
C      1  0.5563710000000  0.4647180000000  0.4832020000000 1.0
C      1  0.5563740000000  0.5357170000000  0.5170050000000 1.0
C      1  0.4834210000000  0.5562670000000  0.4646030000000 1.0
C      1  0.5172280000000  0.5562700000000  0.5355990000000 1.0
C      1  0.5172250000000  0.4441670000000  0.4646090000000 1.0
C      1  0.4344530000000  0.4617970000000  0.5467820000000 1.0
C      1  0.5469970000000  0.4343460000000  0.4616800000000 1.0
C      1  0.4618970000000  0.5468920000000  0.4342320000000 1.0
C      1  0.4344540000000  0.5386450000000  0.4534260000000 1.0
C      1  0.5661940000000  0.5386470000000  0.5467770000000 1.0
C      1  0.5661910000000  0.4617880000000  0.4534300000000 1.0
C      1  0.5470010000000  0.5660890000000  0.5385270000000 1.0
C      1  0.4536490000000  0.5660880000000  0.4616740000000 1.0
C      1  0.4536460000000  0.4343530000000  0.5385350000000 1.0
C      1  0.4618950000000  0.4535480000000  0.5659760000000 1.0
C      1  0.5387480000000  0.4535390000000  0.4342370000000 1.0
C      1  0.5387520000000  0.5468970000000  0.5659710000000 1.0
C      1  0.4553210000000  0.4571120000000  0.5137230000000 1.0
C      1  0.5139380000000  0.4552160000000  0.4569970000000 1.0
C      1  0.4572140000000  0.5138350000000  0.4551030000000 1.0
C      1  0.4553240000000  0.5433290000000  0.4864850000000 1.0
C      1  0.5453250000000  0.5433280000000  0.5137180000000 1.0
C      1  0.5453220000000  0.4571080000000  0.4864890000000 1.0
C      1  0.5139410000000  0.5452220000000  0.5432110000000 1.0
C      1  0.4867070000000  0.5452180000000  0.4569920000000 1.0
C      1  0.4867050000000  0.4552210000000  0.5432160000000 1.0
C      1  0.4572130000000  0.4866060000000  0.5451050000000 1.0
C      1  0.5434320000000  0.4865990000000  0.4551040000000 1.0
C      1  0.5434330000000  0.5138370000000  0.5451040000000 1.0
C      1  0.5302920000000  0.5735870000000  0.4696730000000 1.0
C      1  0.4698970000000  0.5301910000000  0.5734730000000 1.0
C      1  0.5736920000000  0.4697920000000  0.5300720000000 1.0
C      1  0.5302880000000  0.4268500000000  0.5305350000000 1.0
C      1  0.4703540000000  0.4268480000000  0.4696810000000 1.0
C      1  0.4703580000000  0.5735920000000  0.5305270000000 1.0
C      1  0.4698950000000  0.4702490000000  0.4267360000000 1.0
C      1  0.5307490000000  0.4702550000000  0.5734760000000 1.0
C      1  0.5307500000000  0.5301810000000  0.4267320000000 1.0
C      1  0.5736940000000  0.5306420000000  0.4701350000000 1.0
C      1  0.4269540000000  0.5306500000000  0.5300700000000 1.0
C      1  0.4269520000000  0.4697930000000  0.4701390000000 1.0
C      1  0.5226170000000  0.4795800000000  0.5001300000000 1.0
C      1  0.5003480000000  0.5225120000000  0.4794650000000 1.0
C      1  0.4796850000000  0.5002460000000  0.5223980000000 1.0
C      1  0.5226180000000  0.5208570000000  0.5000780000000 1.0
C      1  0.4780300000000  0.5208580000000  0.5001280000000 1.0
C      1  0.4780280000000  0.4795820000000  0.5000800000000 1.0
C      1  0.5003470000000  0.4779260000000  0.5207430000000 1.0
C      1  0.5002980000000  0.4779240000000  0.4794670000000 1.0
C      1  0.5002990000000  0.5225140000000  0.5207410000000 1.0
C      1  0.4796850000000  0.5001940000000  0.4778100000000 1.0
C      1  0.5209610000000  0.5001950000000  0.5223980000000 1.0
C      1  0.5209610000000  0.5002420000000  0.4778100000000 1.0
C      1  0.4362120000000  0.5044230000000  0.5485900000000 1.0
C      1  0.5488080000000  0.4361060000000  0.5043070000000 1.0
C      1  0.5045240000000  0.5487020000000  0.4359900000000 1.0
C      1  0.4362110000000  0.4960190000000  0.4516180000000 1.0
C      1  0.5644350000000  0.4960200000000  0.5485900000000 1.0
C      1  0.5644350000000  0.5044140000000  0.4516170000000 1.0
C      1  0.5488110000000  0.5643290000000  0.4959010000000 1.0
C      1  0.4518380000000  0.5643320000000  0.5043000000000 1.0
C      1  0.4518350000000  0.4361090000000  0.4959080000000 1.0
C      1  0.5045220000000  0.4517360000000  0.5642180000000 1.0
C      1  0.4961220000000  0.4517290000000  0.4359950000000 1.0
C      1  0.4961250000000  0.5487090000000  0.5642130000000 1.0
C      1  0.4734050000000  0.4449110000000  0.5248120000000 1.0
C      1  0.5250270000000  0.4732980000000  0.4447950000000 1.0
C      1  0.4450130000000  0.5249240000000  0.4731860000000 1.0
C      1  0.4734070000000  0.5555290000000  0.4753960000000 1.0
C      1  0.5272420000000  0.5555300000000  0.5248050000000 1.0
C      1  0.5272390000000  0.4449060000000  0.4754020000000 1.0
C      1  0.5250290000000  0.5271390000000  0.5554130000000 1.0
C      1  0.4756190000000  0.5271340000000  0.4447920000000 1.0
C      1  0.4756180000000  0.4733060000000  0.5554160000000 1.0
C      1  0.4450120000000  0.4755170000000  0.5270230000000 1.0
C      1  0.5556330000000  0.4755110000000  0.4731880000000 1.0
C      1  0.5556350000000  0.5249240000000  0.5270190000000 1.0
C      1  0.5156310000000  0.5377330000000  0.4685510000000 1.0
C      1  0.4687730000000  0.5155290000000  0.5376190000000 1.0
C      1  0.5378380000000  0.4686680000000  0.5154130000000 1.0
C      1  0.5156290000000  0.4627040000000  0.5316570000000 1.0
C      1  0.4850150000000  0.4627020000000  0.4685550000000 1.0
C      1  0.4850170000000  0.5377370000000  0.5316530000000 1.0
C      1  0.4687720000000  0.4849110000000  0.4625890000000 1.0
C      1  0.5318740000000  0.4849130000000  0.5376210000000 1.0
C      1  0.5318740000000  0.5155230000000  0.4625870000000 1.0
C      1  0.5378400000000  0.5317680000000  0.4847950000000 1.0
C      1  0.4628080000000  0.5317720000000  0.5154090000000 1.0
C      1  0.4628060000000  0.4686690000000  0.4847990000000 1.0
C      1  0.5195300000000  0.4184370000000  0.4957080000000 1.0
C      1  0.4959230000000  0.5194240000000  0.4183220000000 1.0
C      1  0.4185420000000  0.4958220000000  0.5193140000000 1.0
C      1  0.5195350000000  0.5820000000000  0.5044990000000 1.0
C      1  0.4811160000000  0.5820000000000  0.4957000000000 1.0
C      1  0.4811110000000  0.4184390000000  0.5045090000000 1.0
C      1  0.4959230000000  0.4810140000000  0.5818860000000 1.0
C      1  0.5047220000000  0.4810050000000  0.4183240000000 1.0
C      1  0.5047240000000  0.5194330000000  0.5818840000000 1.0
C      1  0.4185420000000  0.5046200000000  0.4808950000000 1.0
C      1  0.5821040000000  0.5046180000000  0.5193130000000 1.0
C      1  0.5821040000000  0.4958160000000  0.4808940000000 1.0
C      1  0.5210420000000  0.4426730000000  0.4899370000000 1.0
C      1  0.4901530000000  0.5209370000000  0.4425580000000 1.0
C      1  0.4427780000000  0.4900520000000  0.5208260000000 1.0
C      1  0.5210460000000  0.5577640000000  0.5102710000000 1.0
C      1  0.4796040000000  0.5577640000000  0.4899310000000 1.0
C      1  0.4796010000000  0.4426750000000  0.5102770000000 1.0
C      1  0.4901530000000  0.4795020000000  0.5576500000000 1.0
C      1  0.5104920000000  0.4794950000000  0.4425600000000 1.0
C      1  0.5104940000000  0.5209430000000  0.5576480000000 1.0
C      1  0.4427780000000  0.5103900000000  0.4793830000000 1.0
C      1  0.5578680000000  0.5103890000000  0.5208240000000 1.0
C      1  0.5578680000000  0.4900460000000  0.4793830000000 1.0
C      1  0.4418210000000  0.5038170000000  0.5705230000000 1.0
C      1  0.5707400000000  0.4417150000000  0.5036990000000 1.0
C      1  0.5039170000000  0.5706340000000  0.4415980000000 1.0
C      1  0.4418200000000  0.4966250000000  0.4296860000000 1.0
C      1  0.5588260000000  0.4966290000000  0.5705220000000 1.0
C      1  0.5588250000000  0.5038060000000  0.4296850000000 1.0
C      1  0.5707430000000  0.5587200000000  0.4965080000000 1.0
C      1  0.4299060000000  0.5587240000000  0.5036930000000 1.0
C      1  0.4299030000000  0.4417180000000  0.4965150000000 1.0
C      1  0.5039140000000  0.4298040000000  0.5586100000000 1.0
C      1  0.4967290000000  0.4297980000000  0.4416050000000 1.0
C      1  0.4967330000000  0.5706410000000  0.5586030000000 1.0
C      1  0.5482870000000  0.4958540000000  0.4250120000000 1.0
C      1  0.4252330000000  0.5481850000000  0.4957420000000 1.0
C      1  0.4959610000000  0.4251300000000  0.5480720000000 1.0
C      1  0.5482880000000  0.5045820000000  0.5751950000000 1.0
C      1  0.4523580000000  0.5045760000000  0.4250120000000 1.0
C      1  0.4523590000000  0.4958640000000  0.5751960000000 1.0
C      1  0.4252300000000  0.4522570000000  0.5044670000000 1.0
C      1  0.5754130000000  0.4522520000000  0.4957460000000 1.0
C      1  0.5754160000000  0.5481820000000  0.5044610000000 1.0
C      1  0.4959650000000  0.5753080000000  0.4521350000000 1.0
C      1  0.5046860000000  0.5753130000000  0.5480640000000 1.0
C      1  0.5046810000000  0.4251250000000  0.4521440000000 1.0
C      1  0.5400640000000  0.4730150000000  0.4269320000000 1.0
C      1  0.4271510000000  0.5399620000000  0.4729030000000 1.0
C      1  0.4731220000000  0.4270490000000  0.5398500000000 1.0
C      1  0.5400660000000  0.5274210000000  0.5732760000000 1.0
C      1  0.4605820000000  0.5274160000000  0.4269290000000 1.0
C      1  0.4605810000000  0.4730250000000  0.5732790000000 1.0
C      1  0.4271490000000  0.4604810000000  0.5273060000000 1.0
C      1  0.5734950000000  0.4604740000000  0.4729070000000 1.0
C      1  0.5734980000000  0.5399600000000  0.5273010000000 1.0
C      1  0.4731260000000  0.5733910000000  0.4603580000000 1.0
C      1  0.5275250000000  0.5733940000000  0.5398420000000 1.0
C      1  0.5275200000000  0.4270430000000  0.4603660000000 1.0
C      1  0.5703440000000  0.5102990000000  0.5513950000000 1.0
C      1  0.5516170000000  0.5702390000000  0.5101790000000 1.0
C      1  0.5104040000000  0.5515150000000  0.5701220000000 1.0
C      1  0.5703430000000  0.4901350000000  0.4488120000000 1.0
C      1  0.4303020000000  0.4901440000000  0.5513970000000 1.0
C      1  0.4303020000000  0.5102980000000  0.4488120000000 1.0
C      1  0.5516130000000  0.4301960000000  0.4900280000000 1.0
C      1  0.4490290000000  0.4302000000000  0.5101870000000 1.0
C      1  0.4490330000000  0.5702410000000  0.4900210000000 1.0
C      1  0.5104010000000  0.4489230000000  0.4300860000000 1.0
C      1  0.4902420000000  0.4489310000000  0.5701270000000 1.0
C      1  0.4902450000000  0.5515080000000  0.4300810000000 1.0
C      1  0.5613050000000  0.5334450000000  0.5590710000000 1.0
C      1  0.5592940000000  0.5612000000000  0.5333250000000 1.0
C      1  0.5335490000000  0.5591900000000  0.5610810000000 1.0
C      1  0.5613030000000  0.4669900000000  0.4411370000000 1.0
C      1  0.4393420000000  0.4670000000000  0.5590750000000 1.0
C      1  0.4393430000000  0.5334420000000  0.4411330000000 1.0
C      1  0.5592900000000  0.4392350000000  0.4668830000000 1.0
C      1  0.4413530000000  0.4392420000000  0.5333320000000 1.0
C      1  0.4413560000000  0.5612000000000  0.4668770000000 1.0
C      1  0.5335450000000  0.4412460000000  0.4391260000000 1.0
C      1  0.4670970000000  0.4412540000000  0.5610880000000 1.0
C      1  0.4671000000000  0.5591860000000  0.4391200000000 1.0
C      1  0.5192030000000  0.4391330000000  0.4353110000000 1.0
C      1  0.4355270000000  0.5191000000000  0.4390220000000 1.0
C      1  0.4392400000000  0.4354260000000  0.5189900000000 1.0
C      1  0.5192070000000  0.5613040000000  0.5648970000000 1.0
C      1  0.4814420000000  0.5612980000000  0.4353050000000 1.0
C      1  0.4814390000000  0.4391420000000  0.5649030000000 1.0
C      1  0.4355270000000  0.4813420000000  0.5611870000000 1.0
C      1  0.5651180000000  0.4813320000000  0.4390230000000 1.0
C      1  0.5651200000000  0.5191030000000  0.5611840000000 1.0
C      1  0.4392430000000  0.5650160000000  0.4812180000000 1.0
C      1  0.5614070000000  0.5650140000000  0.5189830000000 1.0
C      1  0.5614030000000  0.4354200000000  0.4812250000000 1.0
C      1  0.5269830000000  0.5783340000000  0.4824330000000 1.0
C      1  0.4826570000000  0.5268820000000  0.5782190000000 1.0
C      1  0.5784390000000  0.4825520000000  0.5267630000000 1.0
C      1  0.5269790000000  0.4221030000000  0.5177750000000 1.0
C      1  0.4736630000000  0.4221030000000  0.4824420000000 1.0
C      1  0.4736670000000  0.5783370000000  0.5177670000000 1.0
C      1  0.4826550000000  0.4735570000000  0.4219890000000 1.0
C      1  0.5179890000000  0.4735650000000  0.5782220000000 1.0
C      1  0.5179900000000  0.5268720000000  0.4219860000000 1.0
C      1  0.5784400000000  0.5178820000000  0.4734450000000 1.0
C      1  0.4222080000000  0.5178900000000  0.5267610000000 1.0
C      1  0.4222060000000  0.4825530000000  0.4734470000000 1.0
C      1  0.5088960000000  0.5334690000000  0.4322190000000 1.0
C      1  0.4324400000000  0.5087950000000  0.5333580000000 1.0
C      1  0.5335750000000  0.4323360000000  0.5086800000000 1.0
C      1  0.5088950000000  0.4669690000000  0.5679890000000 1.0
C      1  0.4917500000000  0.4669620000000  0.4322230000000 1.0
C      1  0.4917520000000  0.5334770000000  0.5679850000000 1.0
C      1  0.4324400000000  0.4916470000000  0.4668510000000 1.0
C      1  0.5682060000000  0.4916470000000  0.5333580000000 1.0
C      1  0.5682060000000  0.5087880000000  0.4668490000000 1.0
C      1  0.5335790000000  0.5681010000000  0.4915280000000 1.0
C      1  0.4670710000000  0.5681040000000  0.5086730000000 1.0
C      1  0.4670670000000  0.4323370000000  0.4915360000000 1.0
C      1  0.4397410000000  0.4864490000000  0.5065400000000 1.0
C      1  0.5067560000000  0.4396370000000  0.4863350000000 1.0
C      1  0.4865500000000  0.5066510000000  0.4395220000000 1.0
C      1  0.4397420000000  0.5139930000000  0.4936680000000 1.0
C      1  0.5609050000000  0.5139900000000  0.5065380000000 1.0
C      1  0.5609040000000  0.4864440000000  0.4936690000000 1.0
C      1  0.5067600000000  0.5608010000000  0.5138730000000 1.0
C      1  0.4938900000000  0.5608000000000  0.4863280000000 1.0
C      1  0.4938860000000  0.4396380000000  0.5138800000000 1.0
C      1  0.4865510000000  0.4937880000000  0.5606860000000 1.0
C      1  0.5140950000000  0.4937800000000  0.4395230000000 1.0
C      1  0.5140960000000  0.5066570000000  0.5606850000000 1.0
C      1  0.5114370000000  0.5717960000000  0.5601940000000 1.0
C      1  0.5604180000000  0.5113330000000  0.5716770000000 1.0
C      1  0.5718990000000  0.5603120000000  0.5112120000000 1.0
C      1  0.5114320000000  0.4286420000000  0.4400140000000 1.0
C      1  0.4892100000000  0.4286490000000  0.5602020000000 1.0
C      1  0.4892130000000  0.5717900000000  0.4400060000000 1.0
C      1  0.5604170000000  0.4891020000000  0.4285310000000 1.0
C      1  0.4402290000000  0.4891130000000  0.5716790000000 1.0
C      1  0.4402290000000  0.5113280000000  0.4285300000000 1.0
C      1  0.5718950000000  0.4401220000000  0.4889950000000 1.0
C      1  0.4287480000000  0.4401280000000  0.5112190000000 1.0
C      1  0.4287510000000  0.5603150000000  0.4889890000000 1.0
C      1  0.5091990000000  0.5164700000000  0.4154290000000 1.0
C      1  0.4156500000000  0.5090990000000  0.5163590000000 1.0
C      1  0.5165760000000  0.4155450000000  0.5089850000000 1.0
C      1  0.5091990000000  0.4839680000000  0.5847790000000 1.0
C      1  0.4914460000000  0.4839590000000  0.4154310000000 1.0
C      1  0.4914480000000  0.5164790000000  0.5847770000000 1.0
C      1  0.4156490000000  0.4913440000000  0.4838500000000 1.0
C      1  0.5849970000000  0.4913410000000  0.5163590000000 1.0
C      1  0.5849970000000  0.5090920000000  0.4838480000000 1.0
C      1  0.5165810000000  0.5848920000000  0.4912230000000 1.0
C      1  0.4840700000000  0.5848940000000  0.5089760000000 1.0
C      1  0.4840650000000  0.4155450000000  0.4912320000000 1.0
C      1  0.5003170000000  0.4890440000000  0.5107190000000 1.0
C      1  0.5109380000000  0.5002130000000  0.4889280000000 1.0
C      1  0.4891470000000  0.5108340000000  0.5000980000000 1.0
C      1  0.5003180000000  0.5113950000000  0.4894890000000 1.0
C      1  0.5003290000000  0.5113960000000  0.5107180000000 1.0
C      1  0.5003280000000  0.4890420000000  0.4894900000000 1.0
C      1  0.5109380000000  0.5002250000000  0.5112800000000 1.0
C      1  0.4897080000000  0.5002240000000  0.4889280000000 1.0
C      1  0.4897080000000  0.5002140000000  0.5112800000000 1.0
C      1  0.4891470000000  0.4896050000000  0.5001100000000 1.0
C      1  0.5114990000000  0.4896040000000  0.5000990000000 1.0
C      1  0.5114990000000  0.5108330000000  0.5001090000000 1.0
C      1  0.5169900000000  0.5012100000000  0.4514180000000 1.0
C      1  0.4516380000000  0.5168870000000  0.5010980000000 1.0
C      1  0.5013160000000  0.4515350000000  0.5167730000000 1.0
C      1  0.5169900000000  0.4992270000000  0.5487890000000 1.0
C      1  0.4836560000000  0.4992230000000  0.4514190000000 1.0
C      1  0.4836570000000  0.5012160000000  0.5487890000000 1.0
C      1  0.4516370000000  0.4835540000000  0.4991110000000 1.0
C      1  0.5490080000000  0.4835510000000  0.5010990000000 1.0
C      1  0.5490090000000  0.5168840000000  0.4991090000000 1.0
C      1  0.5013190000000  0.5489040000000  0.4834350000000 1.0
C      1  0.4993300000000  0.5489050000000  0.5167680000000 1.0
C      1  0.4993270000000  0.4515330000000  0.4834400000000 1.0
C      1  0.5498920000000  0.5233810000000  0.4862650000000 1.0
C      1  0.4864870000000  0.5497890000000  0.5232650000000 1.0
C      1  0.5234870000000  0.4863830000000  0.5496730000000 1.0
C      1  0.5498910000000  0.4770540000000  0.5139430000000 1.0
C      1  0.4507540000000  0.4770560000000  0.4862680000000 1.0
C      1  0.4507550000000  0.5233850000000  0.5139410000000 1.0
C      1  0.4864840000000  0.4506500000000  0.4769430000000 1.0
C      1  0.5141590000000  0.4506520000000  0.5232710000000 1.0
C      1  0.5141620000000  0.5497860000000  0.4769370000000 1.0
C      1  0.5234870000000  0.5140530000000  0.4505350000000 1.0
C      1  0.4771600000000  0.5140600000000  0.5496720000000 1.0
C      1  0.4771580000000  0.4863790000000  0.4505360000000 1.0
C      1  0.4371340000000  0.5119830000000  0.5609530000000 1.0
C      1  0.5611710000000  0.4370280000000  0.5118660000000 1.0
C      1  0.5120830000000  0.5610650000000  0.4369110000000 1.0
C      1  0.4371330000000  0.4884590000000  0.4392560000000 1.0
C      1  0.5635130000000  0.4884620000000  0.5609540000000 1.0
C      1  0.5635130000000  0.5119730000000  0.4392540000000 1.0
C      1  0.5611740000000  0.5634060000000  0.4883410000000 1.0
C      1  0.4394760000000  0.5634110000000  0.5118600000000 1.0
C      1  0.4394720000000  0.4370310000000  0.4883490000000 1.0
C      1  0.5120810000000  0.4393730000000  0.5632970000000 1.0
C      1  0.4885620000000  0.4393670000000  0.4369180000000 1.0
C      1  0.4885660000000  0.5610720000000  0.5632900000000 1.0
C      1  0.5497500000000  0.5008370000000  0.5444120000000 1.0
C      1  0.5446330000000  0.5496450000000  0.5007180000000 1.0
C      1  0.5009410000000  0.5445300000000  0.5495280000000 1.0
C      1  0.5497500000000  0.4995990000000  0.4557950000000 1.0
C      1  0.4508960000000  0.4996060000000  0.5444130000000 1.0
C      1  0.4508960000000  0.5008350000000  0.4557960000000 1.0
C      1  0.5446300000000  0.4507910000000  0.4994900000000 1.0
C      1  0.4560130000000  0.4507930000000  0.5007230000000 1.0
C      1  0.4560160000000  0.5496470000000  0.4994850000000 1.0
C      1  0.5009380000000  0.4559080000000  0.4506790000000 1.0
C      1  0.4997060000000  0.4559130000000  0.5495330000000 1.0
C      1  0.4997080000000  0.5445250000000  0.4506750000000 1.0
C      1  0.5177700000000  0.5282640000000  0.4453930000000 1.0
C      1  0.4456140000000  0.5176690000000  0.5281510000000 1.0
C      1  0.5283700000000  0.4455100000000  0.5175530000000 1.0
C      1  0.5177690000000  0.4721740000000  0.5548150000000 1.0
C      1  0.4828760000000  0.4721690000000  0.4453960000000 1.0
C      1  0.4828780000000  0.5282710000000  0.5548120000000 1.0
C      1  0.4456130000000  0.4827730000000  0.4720570000000 1.0
C      1  0.5550320000000  0.4827730000000  0.5281530000000 1.0
C      1  0.5550330000000  0.5176630000000  0.4720550000000 1.0
C      1  0.5283730000000  0.5549270000000  0.4826540000000 1.0
C      1  0.4722770000000  0.5549300000000  0.5175480000000 1.0
C      1  0.4722730000000  0.4455090000000  0.4826610000000 1.0
C      1  0.5061650000000  0.4839470000000  0.4662820000000 1.0
C      1  0.4665000000000  0.5060610000000  0.4838330000000 1.0
C      1  0.4840520000000  0.4663970000000  0.5059480000000 1.0
C      1  0.5061660000000  0.5164910000000  0.5339260000000 1.0
C      1  0.4944810000000  0.5164880000000  0.4662800000000 1.0
C      1  0.4944810000000  0.4839510000000  0.5339280000000 1.0
C      1  0.4665000000000  0.4943790000000  0.5163750000000 1.0
C      1  0.5341460000000  0.4943750000000  0.4838340000000 1.0
C      1  0.5341460000000  0.5060610000000  0.5163740000000 1.0
C      1  0.4840540000000  0.5340420000000  0.4942600000000 1.0
C      1  0.5165950000000  0.5340420000000  0.5059440000000 1.0
C      1  0.5165930000000  0.4663960000000  0.4942640000000 1.0
C      1  0.4266520000000  0.5154230000000  0.4609200000000 1.0
C      1  0.4611370000000  0.4265500000000  0.5153120000000 1.0
C      1  0.5155260000000  0.4610310000000  0.4264350000000 1.0
C      1  0.4266520000000  0.4850190000000  0.5392890000000 1.0
C      1  0.5739930000000  0.4850110000000  0.4609210000000 1.0
C      1  0.5739950000000  0.5154230000000  0.5392870000000 1.0
C      1  0.4611410000000  0.5738900000000  0.4848960000000 1.0
C      1  0.5395090000000  0.5738900000000  0.5153040000000 1.0
C      1  0.5395050000000  0.4265460000000  0.4849040000000 1.0
C      1  0.5155290000000  0.5394060000000  0.5737730000000 1.0
C      1  0.4851200000000  0.5393990000000  0.4264310000000 1.0
C      1  0.4851180000000  0.4610400000000  0.5737770000000 1.0
C      1  0.5494810000000  0.4634960000000  0.4334740000000 1.0
C      1  0.4336930000000  0.5493780000000  0.4633840000000 1.0
C      1  0.4636040000000  0.4335910000000  0.5492670000000 1.0
C      1  0.5494840000000  0.5369390000000  0.5667340000000 1.0
C      1  0.4511650000000  0.5369350000000  0.4334700000000 1.0
C      1  0.4511630000000  0.4635060000000  0.5667380000000 1.0
C      1  0.4336900000000  0.4510640000000  0.5368250000000 1.0
C      1  0.5669530000000  0.4510560000000  0.4633890000000 1.0
C      1  0.5669560000000  0.5493780000000  0.5368190000000 1.0
C      1  0.4636070000000  0.5668490000000  0.4509410000000 1.0
C      1  0.5370430000000  0.5668530000000  0.5492590000000 1.0
C      1  0.5370390000000  0.4335840000000  0.4509480000000 1.0
C      1  0.5345100000000  0.4559290000000  0.5084340000000 1.0
C      1  0.5086510000000  0.5344050000000  0.4558130000000 1.0
C      1  0.4560340000000  0.5085500000000  0.5342920000000 1.0
C      1  0.5345130000000  0.5445070000000  0.4917740000000 1.0
C      1  0.4661360000000  0.5445100000000  0.5084290000000 1.0
C      1  0.4661330000000  0.4559300000000  0.4917790000000 1.0
C      1  0.5086500000000  0.4660330000000  0.5443950000000 1.0
C      1  0.4919940000000  0.4660280000000  0.4558160000000 1.0
C      1  0.4919970000000  0.5344100000000  0.5443920000000 1.0
C      1  0.4560330000000  0.4918910000000  0.4659160000000 1.0
C      1  0.5446120000000  0.4918920000000  0.5342930000000 1.0
C      1  0.5446130000000  0.5085440000000  0.4659150000000 1.0
C      1  0.4932530000000  0.4979880000000  0.4115560000000 1.0
C      1  0.4117750000000  0.4931520000000  0.4978780000000 1.0
C      1  0.4980940000000  0.4116710000000  0.4930390000000 1.0
C      1  0.4932540000000  0.5024500000000  0.5886520000000 1.0
C      1  0.5073930000000  0.5024400000000  0.4115560000000 1.0
C      1  0.5073930000000  0.4979970000000  0.5886520000000 1.0
C      1  0.4117750000000  0.5072920000000  0.5023300000000 1.0
C      1  0.5888710000000  0.5072860000000  0.4978770000000 1.0
C      1  0.5888710000000  0.4931470000000  0.5023300000000 1.0
C      1  0.4980990000000  0.5887680000000  0.5071690000000 1.0
C      1  0.5025520000000  0.5887670000000  0.4930290000000 1.0
C      1  0.5025470000000  0.4116710000000  0.5071790000000 1.0
C      1  0.4648740000000  0.4852490000000  0.5058140000000 1.0
C      1  0.5060310000000  0.4647690000000  0.4851350000000 1.0
C      1  0.4853520000000  0.5059260000000  0.4646550000000 1.0
C      1  0.4648740000000  0.5151910000000  0.4943950000000 1.0
C      1  0.5357730000000  0.5151900000000  0.5058120000000 1.0
C      1  0.5357720000000  0.4852470000000  0.4943960000000 1.0
C      1  0.5060330000000  0.5356690000000  0.5150730000000 1.0
C      1  0.4946150000000  0.5356670000000  0.4851310000000 1.0
C      1  0.4946140000000  0.4647710000000  0.5150770000000 1.0
C      1  0.4853520000000  0.4945130000000  0.5355530000000 1.0
C      1  0.5152940000000  0.4945080000000  0.4646550000000 1.0
C      1  0.5152950000000  0.5059290000000  0.5355530000000 1.0
C      1  0.5348610000000  0.4656770000000  0.4655670000000 1.0
C      1  0.4657830000000  0.4656830000000  0.5346450000000 1.0
C      1  0.5348630000000  0.5347590000000  0.5346410000000 1.0
C      1  0.4657850000000  0.5347570000000  0.4655630000000 1.0
END
