TITL C-526663-2196-47 3.06413477346765 1000000 -3687.65840774726 0 0 520 (C1) n - 1
REM
REM in /scratch/bkarasulu/Only-C240
REM
REM
REM
REM
REM
REM ./C.cell (db1db5b03a21c153a00b653f6831bbfd)
REM
REM compiler GCC version 9.2.1 20190827 (Red Hat 9.2.1-1)
REM options -cpp -mtune=generic -march=x86-64 -g -O0 -fpre-include=/usr/include/finclude/math-vector-fortran.h
REM seed 1740721498 -1760154922 450825993 1264754682 133798954 -182913220 2120145919 1897040440 732595364 1307376555 928817235 -969294205 -618127741 1950925841 299039379 -1549801931 1153475231 680508691 -790950040 609398196 1385048045 -2000216898 -306447533 1705554313 1843762334 -1142659661 1105893629 -836642989 -269275825 763890404 1131642290 1477516967 983516258
REM
CELL 1.54180  100.00000  100.00000  100.00000   90.00000   90.00000   90.00000
LATT -1
SFAC C  
C      1  0.5454940000000  0.5708030000000  0.5051140000000 1.0
C      1  0.4546560000000  0.5708330000000  0.4948020000000 1.0
C      1  0.5453370000000  0.4293140000000  0.5055040000000 1.0
C      1  0.4546750000000  0.4292680000000  0.4945130000000 1.0
C      1  0.4191570000000  0.4837590000000  0.5002540000000 1.0
C      1  0.5808830000000  0.4837190000000  0.4999620000000 1.0
C      1  0.4191610000000  0.5163730000000  0.5003500000000 1.0
C      1  0.5809280000000  0.5162440000000  0.4998230000000 1.0
C      1  0.5708770000000  0.5270970000000  0.5181180000000 1.0
C      1  0.4291200000000  0.5271940000000  0.4819630000000 1.0
C      1  0.5708130000000  0.4729180000000  0.5183020000000 1.0
C      1  0.4291170000000  0.4729690000000  0.4818380000000 1.0
C      1  0.4994650000000  0.5072400000000  0.4481810000000 1.0
C      1  0.5007610000000  0.5071840000000  0.5513540000000 1.0
C      1  0.4994530000000  0.4928040000000  0.4482100000000 1.0
C      1  0.5005930000000  0.4928250000000  0.5519690000000 1.0
C      1  0.5340730000000  0.4522940000000  0.4858480000000 1.0
C      1  0.4659220000000  0.4522650000000  0.5141690000000 1.0
C      1  0.5341500000000  0.5477640000000  0.4856000000000 1.0
C      1  0.4660050000000  0.5477870000000  0.5142350000000 1.0
C      1  0.5385350000000  0.5132200000000  0.4654880000000 1.0
C      1  0.4616760000000  0.5132010000000  0.5345780000000 1.0
C      1  0.5385070000000  0.4867650000000  0.4655630000000 1.0
C      1  0.4616010000000  0.4867920000000  0.5345630000000 1.0
C      1  0.5251600000000  0.5636470000000  0.4517150000000 1.0
C      1  0.4752400000000  0.5631510000000  0.5484420000000 1.0
C      1  0.5251430000000  0.4363120000000  0.4519590000000 1.0
C      1  0.4748840000000  0.4361190000000  0.5479420000000 1.0
C      1  0.5136950000000  0.5764200000000  0.4884260000000 1.0
C      1  0.4865030000000  0.5765580000000  0.5110990000000 1.0
C      1  0.5136390000000  0.4236730000000  0.4886870000000 1.0
C      1  0.4863890000000  0.4236740000000  0.5113280000000 1.0
C      1  0.5037380000000  0.5940840000000  0.5182950000000 1.0
C      1  0.4964760000000  0.5937000000000  0.4808490000000 1.0
C      1  0.5034300000000  0.4063250000000  0.5189040000000 1.0
C      1  0.4966020000000  0.4062930000000  0.4811770000000 1.0
C      1  0.5563360000000  0.5245850000000  0.5155620000000 1.0
C      1  0.4436640000000  0.5246340000000  0.4844430000000 1.0
C      1  0.5562680000000  0.4755270000000  0.5157890000000 1.0
C      1  0.4436680000000  0.4755380000000  0.4843440000000 1.0
C      1  0.5304780000000  0.4933410000000  0.5388940000000 1.0
C      1  0.4690780000000  0.4930390000000  0.4614000000000 1.0
C      1  0.5304650000000  0.5072190000000  0.5388540000000 1.0
C      1  0.4690870000000  0.5070190000000  0.4613810000000 1.0
C      1  0.4214500000000  0.4703530000000  0.5043070000000 1.0
C      1  0.5785650000000  0.4703500000000  0.4958270000000 1.0
C      1  0.4215200000000  0.5297440000000  0.5045170000000 1.0
C      1  0.5786380000000  0.5296070000000  0.4956330000000 1.0
C      1  0.4455090000000  0.5431640000000  0.4686170000000 1.0
C      1  0.5545280000000  0.5431170000000  0.5312880000000 1.0
C      1  0.4455250000000  0.4569990000000  0.4685420000000 1.0
C      1  0.5543100000000  0.4569990000000  0.5315780000000 1.0
C      1  0.5484470000000  0.5602840000000  0.4490630000000 1.0
C      1  0.4523700000000  0.5595740000000  0.5510620000000 1.0
C      1  0.5484160000000  0.4396210000000  0.4493530000000 1.0
C      1  0.4515440000000  0.4392080000000  0.5506740000000 1.0
C      1  0.5595660000000  0.4926870000000  0.4431930000000 1.0
C      1  0.4403730000000  0.4922150000000  0.5568590000000 1.0
C      1  0.5595720000000  0.5071790000000  0.4431300000000 1.0
C      1  0.4403750000000  0.5067210000000  0.5562910000000 1.0
C      1  0.5358790000000  0.4612500000000  0.5680040000000 1.0
C      1  0.4637830000000  0.4610520000000  0.4320240000000 1.0
C      1  0.5359880000000  0.5388470000000  0.5678680000000 1.0
C      1  0.4637640000000  0.5389940000000  0.4320710000000 1.0
C      1  0.4987430000000  0.4271910000000  0.5285730000000 1.0
C      1  0.5012630000000  0.4271650000000  0.4714890000000 1.0
C      1  0.4989290000000  0.5732830000000  0.5280590000000 1.0
C      1  0.5012110000000  0.5728660000000  0.4713160000000 1.0
C      1  0.4623990000000  0.4860000000000  0.4507740000000 1.0
C      1  0.5372610000000  0.4861970000000  0.5493460000000 1.0
C      1  0.4624000000000  0.5140700000000  0.4507760000000 1.0
C      1  0.5371260000000  0.5142920000000  0.5493970000000 1.0
C      1  0.4739240000000  0.4799900000000  0.4445850000000 1.0
C      1  0.5256930000000  0.4802170000000  0.5555110000000 1.0
C      1  0.4739320000000  0.5200600000000  0.4445770000000 1.0
C      1  0.5254540000000  0.5203840000000  0.5554400000000 1.0
C      1  0.5066170000000  0.5562250000000  0.5433570000000 1.0
C      1  0.4935830000000  0.5557670000000  0.4560690000000 1.0
C      1  0.5062760000000  0.4443590000000  0.5439390000000 1.0
C      1  0.4936130000000  0.4442540000000  0.4561540000000 1.0
C      1  0.4641530000000  0.4404150000000  0.5562770000000 1.0
C      1  0.5358400000000  0.4408530000000  0.4436270000000 1.0
C      1  0.4648720000000  0.5579690000000  0.5569990000000 1.0
C      1  0.5358500000000  0.5590630000000  0.4433800000000 1.0
C      1  0.5178090000000  0.4730870000000  0.5432480000000 1.0
C      1  0.4820310000000  0.4729930000000  0.4567590000000 1.0
C      1  0.5176660000000  0.5274210000000  0.5430140000000 1.0
C      1  0.4820160000000  0.5270920000000  0.4567510000000 1.0
C      1  0.4508930000000  0.4544470000000  0.4923640000000 1.0
C      1  0.5490520000000  0.4544650000000  0.5077040000000 1.0
C      1  0.4509110000000  0.5457030000000  0.4924820000000 1.0
C      1  0.5491930000000  0.5456460000000  0.5074250000000 1.0
C      1  0.4899930000000  0.5447370000000  0.5751240000000 1.0
C      1  0.5121200000000  0.5442370000000  0.4241960000000 1.0
C      1  0.4873880000000  0.4561510000000  0.5759190000000 1.0
C      1  0.5121940000000  0.4557520000000  0.4242970000000 1.0
C      1  0.5300580000000  0.4444020000000  0.5535160000000 1.0
C      1  0.4697120000000  0.4442970000000  0.4465930000000 1.0
C      1  0.5305090000000  0.5558710000000  0.5531840000000 1.0
C      1  0.4696980000000  0.5557830000000  0.4466000000000 1.0
C      1  0.4518880000000  0.4637390000000  0.4804950000000 1.0
C      1  0.5480180000000  0.4637290000000  0.5195850000000 1.0
C      1  0.4518680000000  0.5364360000000  0.4805710000000 1.0
C      1  0.5481620000000  0.5364200000000  0.5193320000000 1.0
C      1  0.4549040000000  0.4696910000000  0.5503260000000 1.0
C      1  0.5453020000000  0.4699460000000  0.4493380000000 1.0
C      1  0.4553300000000  0.5295870000000  0.5512560000000 1.0
C      1  0.5453220000000  0.5299710000000  0.4491910000000 1.0
C      1  0.4282510000000  0.5279520000000  0.5308550000000 1.0
C      1  0.5721090000000  0.5277200000000  0.4692130000000 1.0
C      1  0.4280010000000  0.4719630000000  0.5306840000000 1.0
C      1  0.5720520000000  0.4722350000000  0.4693960000000 1.0
C      1  0.4962730000000  0.4931400000000  0.4849790000000 1.0
C      1  0.5036520000000  0.4932710000000  0.5149680000000 1.0
C      1  0.4963320000000  0.5069050000000  0.4848910000000 1.0
C      1  0.5038490000000  0.5070390000000  0.5147370000000 1.0
C      1  0.5337080000000  0.4512170000000  0.4339320000000 1.0
C      1  0.4663440000000  0.4508530000000  0.5657790000000 1.0
C      1  0.5337110000000  0.5486660000000  0.4337260000000 1.0
C      1  0.4667830000000  0.5476900000000  0.5672450000000 1.0
C      1  0.4309400000000  0.4711650000000  0.5452320000000 1.0
C      1  0.5691150000000  0.4715630000000  0.4548340000000 1.0
C      1  0.4313640000000  0.5281890000000  0.5454020000000 1.0
C      1  0.5691490000000  0.5283500000000  0.4546510000000 1.0
C      1  0.5200760000000  0.4347850000000  0.5181370000000 1.0
C      1  0.4799020000000  0.4347790000000  0.4818990000000 1.0
C      1  0.5202720000000  0.5654800000000  0.5177970000000 1.0
C      1  0.4798660000000  0.5653730000000  0.4819230000000 1.0
C      1  0.5049240000000  0.5147230000000  0.5889930000000 1.0
C      1  0.4978120000000  0.5129970000000  0.4127530000000 1.0
C      1  0.5021090000000  0.4877340000000  0.5875260000000 1.0
C      1  0.4978110000000  0.4869670000000  0.4127770000000 1.0
C      1  0.5153350000000  0.4100320000000  0.5160200000000 1.0
C      1  0.4846950000000  0.4100010000000  0.4840510000000 1.0
C      1  0.5156620000000  0.5903400000000  0.5155050000000 1.0
C      1  0.4845450000000  0.5900860000000  0.4837630000000 1.0
C      1  0.4487190000000  0.5161420000000  0.4478120000000 1.0
C      1  0.5509100000000  0.5161350000000  0.5522230000000 1.0
C      1  0.4487130000000  0.4839810000000  0.4477750000000 1.0
C      1  0.5509400000000  0.4840260000000  0.5522500000000 1.0
C      1  0.5143650000000  0.5119000000000  0.4666190000000 1.0
C      1  0.4857800000000  0.5118490000000  0.5331330000000 1.0
C      1  0.5143380000000  0.4881470000000  0.4666690000000 1.0
C      1  0.4857090000000  0.4880860000000  0.5333520000000 1.0
C      1  0.4722540000000  0.5731670000000  0.5090160000000 1.0
C      1  0.5279380000000  0.5731370000000  0.4907970000000 1.0
C      1  0.4721800000000  0.4269370000000  0.5088530000000 1.0
C      1  0.5278560000000  0.4269440000000  0.4911430000000 1.0
C      1  0.5388280000000  0.5077080000000  0.5154950000000 1.0
C      1  0.4611220000000  0.5076910000000  0.4845980000000 1.0
C      1  0.5388270000000  0.4924590000000  0.5155610000000 1.0
C      1  0.4611250000000  0.4924520000000  0.4846020000000 1.0
C      1  0.5240770000000  0.5136250000000  0.4451240000000 1.0
C      1  0.4763280000000  0.5133670000000  0.5551640000000 1.0
C      1  0.5240600000000  0.4863210000000  0.4451870000000 1.0
C      1  0.4761390000000  0.4863180000000  0.5550760000000 1.0
C      1  0.4415590000000  0.4489770000000  0.5467790000000 1.0
C      1  0.5585210000000  0.4492610000000  0.4532650000000 1.0
C      1  0.4420530000000  0.5502280000000  0.5471630000000 1.0
C      1  0.5585580000000  0.5506520000000  0.4529890000000 1.0
C      1  0.5480780000000  0.5538690000000  0.5369910000000 1.0
C      1  0.4520310000000  0.5538680000000  0.4628490000000 1.0
C      1  0.5477820000000  0.4463050000000  0.5373470000000 1.0
C      1  0.4520500000000  0.4462810000000  0.4628080000000 1.0
C      1  0.4455850000000  0.4695770000000  0.4477380000000 1.0
C      1  0.5541030000000  0.4696580000000  0.5523200000000 1.0
C      1  0.4455850000000  0.5305350000000  0.4478200000000 1.0
C      1  0.5542220000000  0.5304250000000  0.5521420000000 1.0
C      1  0.4732850000000  0.4501720000000  0.4341130000000 1.0
C      1  0.5263640000000  0.4504260000000  0.5658980000000 1.0
C      1  0.4732710000000  0.5498620000000  0.4341300000000 1.0
C      1  0.5270430000000  0.5499720000000  0.5657210000000 1.0
C      1  0.5608580000000  0.4656670000000  0.5402950000000 1.0
C      1  0.4389130000000  0.4656370000000  0.4598330000000 1.0
C      1  0.5609380000000  0.5344120000000  0.5400780000000 1.0
C      1  0.4389290000000  0.5344900000000  0.4599190000000 1.0
C      1  0.5470930000000  0.5155110000000  0.4412360000000 1.0
C      1  0.4528350000000  0.5152180000000  0.5582640000000 1.0
C      1  0.5470840000000  0.4843680000000  0.4413250000000 1.0
C      1  0.4530900000000  0.4841390000000  0.5588290000000 1.0
C      1  0.5585610000000  0.4629630000000  0.4504810000000 1.0
C      1  0.4416410000000  0.4627040000000  0.5494680000000 1.0
C      1  0.5585920000000  0.5369370000000  0.4502800000000 1.0
C      1  0.4420490000000  0.5365510000000  0.5500420000000 1.0
C      1  0.4597260000000  0.4397450000000  0.4724590000000 1.0
C      1  0.5401810000000  0.4397660000000  0.5276370000000 1.0
C      1  0.4596850000000  0.5604260000000  0.4725130000000 1.0
C      1  0.5404890000000  0.5604700000000  0.5272800000000 1.0
C      1  0.4533290000000  0.4596240000000  0.4416950000000 1.0
C      1  0.5463820000000  0.4597320000000  0.5584080000000 1.0
C      1  0.4533240000000  0.5404640000000  0.4417530000000 1.0
C      1  0.5464820000000  0.5402820000000  0.5581680000000 1.0
C      1  0.4390130000000  0.4422040000000  0.5086970000000 1.0
C      1  0.5609760000000  0.4423050000000  0.4913150000000 1.0
C      1  0.4391720000000  0.5577940000000  0.5091210000000 1.0
C      1  0.5610980000000  0.5577220000000  0.4909880000000 1.0
C      1  0.4804490000000  0.5080010000000  0.4365830000000 1.0
C      1  0.5190100000000  0.5084000000000  0.5635650000000 1.0
C      1  0.4804460000000  0.4920320000000  0.4365940000000 1.0
C      1  0.5192210000000  0.4924600000000  0.5636590000000 1.0
C      1  0.4432330000000  0.5080430000000  0.5026130000000 1.0
C      1  0.5568060000000  0.5080070000000  0.4974450000000 1.0
C      1  0.4432230000000  0.4920410000000  0.5026400000000 1.0
C      1  0.5567920000000  0.4920080000000  0.4975160000000 1.0
C      1  0.4959910000000  0.4779100000000  0.5311970000000 1.0
C      1  0.5040820000000  0.4778610000000  0.4687330000000 1.0
C      1  0.4959150000000  0.5223140000000  0.5309430000000 1.0
C      1  0.5040870000000  0.5221800000000  0.4686460000000 1.0
C      1  0.4982940000000  0.4431780000000  0.5579120000000 1.0
C      1  0.5014970000000  0.4429910000000  0.4422140000000 1.0
C      1  0.4994620000000  0.5583400000000  0.5573630000000 1.0
C      1  0.5014530000000  0.5570180000000  0.4421050000000 1.0
C      1  0.5247850000000  0.5353770000000  0.4650580000000 1.0
C      1  0.4752990000000  0.5353490000000  0.5349250000000 1.0
C      1  0.5247650000000  0.4646180000000  0.4652210000000 1.0
C      1  0.4754020000000  0.4646340000000  0.5346090000000 1.0
C      1  0.5367620000000  0.5077880000000  0.4500590000000 1.0
C      1  0.4635370000000  0.5076570000000  0.5502350000000 1.0
C      1  0.5367530000000  0.4921460000000  0.4501010000000 1.0
C      1  0.4634570000000  0.4920940000000  0.5503060000000 1.0
C      1  0.5231200000000  0.5514860000000  0.4259560000000 1.0
C      1  0.4778570000000  0.5499320000000  0.5744210000000 1.0
C      1  0.5231450000000  0.4484230000000  0.4261250000000 1.0
C      1  0.4766460000000  0.4484810000000  0.5739540000000 1.0
C      1  0.4871950000000  0.4688920000000  0.5233500000000 1.0
C      1  0.5128850000000  0.4688620000000  0.4765910000000 1.0
C      1  0.4871090000000  0.5312930000000  0.5231830000000 1.0
C      1  0.5129220000000  0.5311880000000  0.4764650000000 1.0
C      1  0.5144870000000  0.5249770000000  0.4903410000000 1.0
C      1  0.4855720000000  0.5250110000000  0.5093960000000 1.0
C      1  0.5144260000000  0.4751030000000  0.4904620000000 1.0
C      1  0.4855790000000  0.4751480000000  0.5095150000000 1.0
C      1  0.5664640000000  0.4855900000000  0.4533570000000 1.0
C      1  0.4334680000000  0.4851770000000  0.5467620000000 1.0
C      1  0.5664890000000  0.5143200000000  0.4532400000000 1.0
C      1  0.4335790000000  0.5140370000000  0.5464510000000 1.0
C      1  0.5390870000000  0.4758020000000  0.4913230000000 1.0
C      1  0.4608890000000  0.4757960000000  0.5087600000000 1.0
C      1  0.5391610000000  0.5242640000000  0.4911720000000 1.0
C      1  0.4609520000000  0.5243060000000  0.5087390000000 1.0
C      1  0.5308220000000  0.4824290000000  0.5227650000000 1.0
C      1  0.4690110000000  0.4824860000000  0.4771320000000 1.0
C      1  0.5309550000000  0.5178110000000  0.5227650000000 1.0
C      1  0.4690180000000  0.5176710000000  0.4771670000000 1.0
C      1  0.5712220000000  0.5415130000000  0.4755330000000 1.0
C      1  0.4290840000000  0.5416470000000  0.5246120000000 1.0
C      1  0.5711220000000  0.4584440000000  0.4757660000000 1.0
C      1  0.4288880000000  0.4582620000000  0.5242340000000 1.0
C      1  0.4279850000000  0.5069530000000  0.5053100000000 1.0
C      1  0.5720660000000  0.5068800000000  0.4947900000000 1.0
C      1  0.4279680000000  0.4931460000000  0.5053390000000 1.0
C      1  0.5720540000000  0.4930760000000  0.4948620000000 1.0
C      1  0.5721850000000  0.5142270000000  0.5406070000000 1.0
C      1  0.4275260000000  0.5143140000000  0.4595000000000 1.0
C      1  0.5722630000000  0.4858080000000  0.5407340000000 1.0
C      1  0.4274940000000  0.4858400000000  0.4594430000000 1.0
C      1  0.4648020000000  0.5329970000000  0.5635310000000 1.0
C      1  0.5358760000000  0.5341730000000  0.4379430000000 1.0
C      1  0.4643810000000  0.4652320000000  0.5613620000000 1.0
C      1  0.5358580000000  0.4657190000000  0.4381000000000 1.0
C      1  0.5044340000000  0.5128490000000  0.5639090000000 1.0
C      1  0.4950360000000  0.5123990000000  0.4358410000000 1.0
C      1  0.5046580000000  0.4882000000000  0.5646570000000 1.0
C      1  0.4950300000000  0.4876140000000  0.4358830000000 1.0
C      1  0.4690690000000  0.4520940000000  0.5284860000000 1.0
C      1  0.5309980000000  0.4521140000000  0.4715170000000 1.0
C      1  0.4690630000000  0.5478450000000  0.5285220000000 1.0
C      1  0.5310560000000  0.5478930000000  0.4712850000000 1.0
C      1  0.4720770000000  0.5266930000000  0.4300030000000 1.0
C      1  0.5270460000000  0.5270240000000  0.5701040000000 1.0
C      1  0.4721020000000  0.4733360000000  0.4300030000000 1.0
C      1  0.5276280000000  0.4736090000000  0.5700780000000 1.0
C      1  0.5135820000000  0.4540660000000  0.5711350000000 1.0
C      1  0.4860550000000  0.4537140000000  0.4288300000000 1.0
C      1  0.5143450000000  0.5469930000000  0.5709240000000 1.0
C      1  0.4860100000000  0.5462950000000  0.4287870000000 1.0
C      1  0.5421730000000  0.5585550000000  0.5124160000000 1.0
C      1  0.4579460000000  0.5586010000000  0.4874130000000 1.0
C      1  0.5419880000000  0.4415840000000  0.5127620000000 1.0
C      1  0.4579830000000  0.4415780000000  0.4873130000000 1.0
C      1  0.5381920000000  0.4619560000000  0.4967120000000 1.0
C      1  0.4617690000000  0.4619500000000  0.5033500000000 1.0
C      1  0.5382920000000  0.5381390000000  0.4964820000000 1.0
C      1  0.4618220000000  0.5381580000000  0.5033690000000 1.0
C      1  0.5334310000000  0.4218290000000  0.5039840000000 1.0
C      1  0.4665940000000  0.4218090000000  0.4960280000000 1.0
C      1  0.5335980000000  0.5783000000000  0.5035790000000 1.0
C      1  0.4665820000000  0.5783110000000  0.4962080000000 1.0
C      1  0.5014250000000  0.4315850000000  0.4587930000000 1.0
C      1  0.4986110000000  0.4316080000000  0.5412810000000 1.0
C      1  0.5014390000000  0.5684020000000  0.4586420000000 1.0
C      1  0.4985670000000  0.5688200000000  0.5406510000000 1.0
C      1  0.4941850000000  0.5653730000000  0.4814700000000 1.0
C      1  0.5059500000000  0.5655010000000  0.5181450000000 1.0
C      1  0.4942110000000  0.4347070000000  0.4815800000000 1.0
C      1  0.5057770000000  0.4347040000000  0.5184510000000 1.0
C      1  0.4578560000000  0.5218850000000  0.5709980000000 1.0
C      1  0.5408600000000  0.5230910000000  0.4294320000000 1.0
C      1  0.4591400000000  0.4757170000000  0.5702030000000 1.0
C      1  0.5408470000000  0.4767550000000  0.4295470000000 1.0
C      1  0.4747260000000  0.5131060000000  0.4233620000000 1.0
C      1  0.5253000000000  0.5134620000000  0.5763910000000 1.0
C      1  0.4747300000000  0.4869130000000  0.4233710000000 1.0
C      1  0.5252880000000  0.4871590000000  0.5766720000000 1.0
C      1  0.4484520000000  0.4875520000000  0.4892180000000 1.0
C      1  0.5515290000000  0.4875750000000  0.5109520000000 1.0
C      1  0.4484530000000  0.5125730000000  0.4892190000000 1.0
C      1  0.5515200000000  0.5125330000000  0.5108210000000 1.0
C      1  0.4863500000000  0.4922340000000  0.5471080000000 1.0
C      1  0.5137810000000  0.4923070000000  0.4529040000000 1.0
C      1  0.4863860000000  0.5075410000000  0.5468080000000 1.0
C      1  0.5137970000000  0.5076970000000  0.4528710000000 1.0
C      1  0.4488310000000  0.4315040000000  0.5071880000000 1.0
C      1  0.5511710000000  0.4315870000000  0.4928160000000 1.0
C      1  0.4489700000000  0.5685060000000  0.5075590000000 1.0
C      1  0.5513000000000  0.5684690000000  0.4924380000000 1.0
C      1  0.4730630000000  0.4379780000000  0.4692610000000 1.0
C      1  0.5268330000000  0.4380410000000  0.5308060000000 1.0
C      1  0.4730280000000  0.5621310000000  0.4692830000000 1.0
C      1  0.5271620000000  0.5623280000000  0.5304390000000 1.0
C      1  0.5245740000000  0.5380130000000  0.5353780000000 1.0
C      1  0.4753870000000  0.5377860000000  0.4643760000000 1.0
C      1  0.5245560000000  0.4624040000000  0.5356930000000 1.0
C      1  0.4753950000000  0.4623110000000  0.4643720000000 1.0
C      1  0.5646180000000  0.5143530000000  0.4676680000000 1.0
C      1  0.4355560000000  0.5144020000000  0.5320900000000 1.0
C      1  0.5645780000000  0.4856070000000  0.4677860000000 1.0
C      1  0.4354210000000  0.4853370000000  0.5323630000000 1.0
C      1  0.5257290000000  0.5573540000000  0.4930540000000 1.0
C      1  0.4744090000000  0.5573920000000  0.5067230000000 1.0
C      1  0.5256410000000  0.4427310000000  0.4933280000000 1.0
C      1  0.4743760000000  0.4427460000000  0.5066890000000 1.0
C      1  0.5508340000000  0.4319400000000  0.4613660000000 1.0
C      1  0.4491310000000  0.4316910000000  0.5385660000000 1.0
C      1  0.5509080000000  0.5680040000000  0.4610410000000 1.0
C      1  0.4498170000000  0.5676460000000  0.5393090000000 1.0
C      1  0.5217050000000  0.4723330000000  0.4408460000000 1.0
C      1  0.4785430000000  0.4722150000000  0.5589170000000 1.0
C      1  0.5217160000000  0.5275980000000  0.4407120000000 1.0
C      1  0.4792230000000  0.5273730000000  0.5595070000000 1.0
C      1  0.5780200000000  0.4678380000000  0.4821500000000 1.0
C      1  0.4219530000000  0.4676860000000  0.5179380000000 1.0
C      1  0.5780990000000  0.5321280000000  0.4819570000000 1.0
C      1  0.4220900000000  0.5323530000000  0.5181550000000 1.0
C      1  0.5262900000000  0.5400740000000  0.5080380000000 1.0
C      1  0.4737890000000  0.5400620000000  0.4917440000000 1.0
C      1  0.5261420000000  0.4600590000000  0.5082630000000 1.0
C      1  0.4737860000000  0.4601040000000  0.4917650000000 1.0
C      1  0.4850030000000  0.5346480000000  0.5470950000000 1.0
C      1  0.5150700000000  0.5345200000000  0.4523400000000 1.0
C      1  0.4851500000000  0.4654940000000  0.5473880000000 1.0
C      1  0.5150630000000  0.4654520000000  0.4524850000000 1.0
C      1  0.5171010000000  0.5076080000000  0.5866410000000 1.0
C      1  0.4841560000000  0.5074410000000  0.4138970000000 1.0
C      1  0.5163830000000  0.4927130000000  0.5864660000000 1.0
C      1  0.4841560000000  0.4925490000000  0.4139040000000 1.0
C      1  0.4598640000000  0.4291630000000  0.5301800000000 1.0
C      1  0.5401630000000  0.4292040000000  0.4697830000000 1.0
C      1  0.4601870000000  0.5707640000000  0.5305950000000 1.0
C      1  0.5402390000000  0.5707850000000  0.4694420000000 1.0
C      1  0.5049520000000  0.4754920000000  0.4190000000000 1.0
C      1  0.4949190000000  0.4762540000000  0.5815010000000 1.0
C      1  0.5049430000000  0.5245020000000  0.4189090000000 1.0
C      1  0.4928630000000  0.5188270000000  0.5837070000000 1.0
C      1  0.4136770000000  0.5074540000000  0.4781760000000 1.0
C      1  0.5862430000000  0.5073490000000  0.5220630000000 1.0
C      1  0.4136720000000  0.4927640000000  0.4781460000000 1.0
C      1  0.5862660000000  0.4926640000000  0.5221210000000 1.0
C      1  0.5830320000000  0.5071070000000  0.5361940000000 1.0
C      1  0.4167130000000  0.5071900000000  0.4640050000000 1.0
C      1  0.5830900000000  0.4929330000000  0.5362650000000 1.0
C      1  0.4167130000000  0.4930040000000  0.4639790000000 1.0
C      1  0.5068800000000  0.4555180000000  0.4774700000000 1.0
C      1  0.4932610000000  0.4555860000000  0.5224530000000 1.0
C      1  0.5069210000000  0.5445300000000  0.4773330000000 1.0
C      1  0.4930490000000  0.5446810000000  0.5223690000000 1.0
C      1  0.4967620000000  0.4847870000000  0.5060980000000 1.0
C      1  0.5032400000000  0.4847510000000  0.4938750000000 1.0
C      1  0.4967460000000  0.5153930000000  0.5059200000000 1.0
C      1  0.5032620000000  0.5153800000000  0.4937330000000 1.0
C      1  0.5312140000000  0.5192130000000  0.4203830000000 1.0
C      1  0.4593260000000  0.5148190000000  0.5821090000000 1.0
C      1  0.5312190000000  0.4806050000000  0.4204610000000 1.0
C      1  0.4686690000000  0.4784450000000  0.5798240000000 1.0
C      1  0.5615270000000  0.5072480000000  0.5476960000000 1.0
C      1  0.4381120000000  0.5072860000000  0.4523540000000 1.0
C      1  0.5615760000000  0.4928390000000  0.5477340000000 1.0
C      1  0.4381050000000  0.4928500000000  0.4523340000000 1.0
C      1  0.4889100000000  0.5657950000000  0.5511680000000 1.0
C      1  0.5113950000000  0.5652280000000  0.4484850000000 1.0
C      1  0.4886070000000  0.4347300000000  0.5513980000000 1.0
C      1  0.5113940000000  0.4347490000000  0.4486440000000 1.0
C      1  0.5410350000000  0.4267260000000  0.4833200000000 1.0
C      1  0.4590000000000  0.4266760000000  0.5166620000000 1.0
C      1  0.5411270000000  0.5733090000000  0.4829570000000 1.0
C      1  0.4591750000000  0.5733110000000  0.5170440000000 1.0
C      1  0.5217900000000  0.5536760000000  0.5409870000000 1.0
C      1  0.4783690000000  0.5534250000000  0.4586960000000 1.0
C      1  0.5214760000000  0.4467420000000  0.5413870000000 1.0
C      1  0.4783970000000  0.4466610000000  0.4586780000000 1.0
C      1  0.4800700000000  0.5154860000000  0.4672200000000 1.0
C      1  0.5198650000000  0.5157270000000  0.5326120000000 1.0
C      1  0.4801030000000  0.4846020000000  0.4672120000000 1.0
C      1  0.5198950000000  0.4847510000000  0.5327410000000 1.0
C      1  0.5809220000000  0.5169270000000  0.5138750000000 1.0
C      1  0.4190740000000  0.5170540000000  0.4862940000000 1.0
C      1  0.5808780000000  0.4830630000000  0.5140100000000 1.0
C      1  0.4191040000000  0.4831470000000  0.4862080000000 1.0
C      1  0.4486470000000  0.4868210000000  0.5267710000000 1.0
C      1  0.5513550000000  0.4868830000000  0.4734130000000 1.0
C      1  0.4488320000000  0.5131310000000  0.5266420000000 1.0
C      1  0.5513990000000  0.5131070000000  0.4733120000000 1.0
C      1  0.4388410000000  0.4412730000000  0.5346090000000 1.0
C      1  0.5611670000000  0.4414630000000  0.4654000000000 1.0
C      1  0.4393220000000  0.5583130000000  0.5351690000000 1.0
C      1  0.5612420000000  0.5584860000000  0.4650850000000 1.0
C      1  0.5273360000000  0.5174170000000  0.4874590000000 1.0
C      1  0.4727540000000  0.5174890000000  0.5125110000000 1.0
C      1  0.5272830000000  0.4826530000000  0.4875480000000 1.0
C      1  0.4727070000000  0.4826720000000  0.5124780000000 1.0
C      1  0.4886370000000  0.4490670000000  0.5092830000000 1.0
C      1  0.5113920000000  0.4490390000000  0.4907030000000 1.0
C      1  0.4886430000000  0.5511300000000  0.5091620000000 1.0
C      1  0.5114560000000  0.5510490000000  0.4905170000000 1.0
C      1  0.4757810000000  0.4202370000000  0.4858390000000 1.0
C      1  0.5242440000000  0.4202680000000  0.5141850000000 1.0
C      1  0.4756760000000  0.5798610000000  0.4858950000000 1.0
C      1  0.5244440000000  0.5799790000000  0.5137800000000 1.0
C      1  0.4607690000000  0.5023650000000  0.5853510000000 1.0
C      1  0.5329360000000  0.5062690000000  0.4156960000000 1.0
C      1  0.4653200000000  0.4904550000000  0.5852870000000 1.0
C      1  0.5329420000000  0.4935300000000  0.4157250000000 1.0
C      1  0.4966070000000  0.4356590000000  0.5069330000000 1.0
C      1  0.5034020000000  0.4356580000000  0.4930870000000 1.0
C      1  0.4967020000000  0.5644600000000  0.5066970000000 1.0
C      1  0.5034620000000  0.5644250000000  0.4928860000000 1.0
C      1  0.5031810000000  0.5268630000000  0.5672190000000 1.0
C      1  0.4960940000000  0.5260410000000  0.4302330000000 1.0
C      1  0.5036990000000  0.4746170000000  0.5702190000000 1.0
C      1  0.4961120000000  0.4739580000000  0.4303360000000 1.0
C      1  0.5070000000000  0.4156660000000  0.4788280000000 1.0
C      1  0.4930180000000  0.4156930000000  0.5212270000000 1.0
C      1  0.5069570000000  0.5843960000000  0.4785990000000 1.0
C      1  0.4933340000000  0.5847780000000  0.5206470000000 1.0
C      1  0.4709660000000  0.4381580000000  0.5340520000000 1.0
C      1  0.5290410000000  0.4381470000000  0.4659080000000 1.0
C      1  0.4712030000000  0.5616970000000  0.5344060000000 1.0
C      1  0.5290910000000  0.5618460000000  0.4656480000000 1.0
C      1  0.4998630000000  0.5455560000000  0.5350080000000 1.0
C      1  0.4999320000000  0.5452170000000  0.4647400000000 1.0
C      1  0.5001360000000  0.4549080000000  0.5351430000000 1.0
C      1  0.4999020000000  0.4548200000000  0.4648640000000 1.0
C      1  0.4927460000000  0.5145200000000  0.4736630000000 1.0
C      1  0.5073540000000  0.5148790000000  0.5258330000000 1.0
C      1  0.4927250000000  0.4854850000000  0.4737580000000 1.0
C      1  0.5072240000000  0.4857320000000  0.5262470000000 1.0
C      1  0.5370570000000  0.4725290000000  0.4620140000000 1.0
C      1  0.4630550000000  0.4725140000000  0.5377540000000 1.0
C      1  0.5370800000000  0.5274460000000  0.4618800000000 1.0
C      1  0.4632700000000  0.5273450000000  0.5384190000000 1.0
C      1  0.5625080000000  0.4521210000000  0.5023690000000 1.0
C      1  0.4374430000000  0.4520720000000  0.4976820000000 1.0
C      1  0.5626380000000  0.5479280000000  0.5020760000000 1.0
C      1  0.4375270000000  0.5480080000000  0.4980020000000 1.0
C      1  0.5033210000000  0.4932340000000  0.4246380000000 1.0
C      1  0.4964530000000  0.4943420000000  0.5758800000000 1.0
C      1  0.5033180000000  0.5067330000000  0.4246170000000 1.0
C      1  0.4950550000000  0.5078000000000  0.5745210000000 1.0
C      1  0.4725000000000  0.5553180000000  0.4915450000000 1.0
C      1  0.5276060000000  0.5553240000000  0.5082330000000 1.0
C      1  0.4725230000000  0.4448510000000  0.4915160000000 1.0
C      1  0.5274520000000  0.4448310000000  0.5085140000000 1.0
C      1  0.4857860000000  0.4623110000000  0.5003950000000 1.0
C      1  0.5141940000000  0.4622660000000  0.4995700000000 1.0
C      1  0.4858060000000  0.5378590000000  0.5002970000000 1.0
C      1  0.5142660000000  0.5378190000000  0.4994610000000 1.0
C      1  0.4301530000000  0.5263580000000  0.4665660000000 1.0
C      1  0.5697130000000  0.5262620000000  0.5335020000000 1.0
C      1  0.4301120000000  0.4737660000000  0.4664660000000 1.0
C      1  0.5697150000000  0.4737440000000  0.5336930000000 1.0
C      1  0.4999040000000  0.5502700000000  0.4301390000000 1.0
C      1  0.5013150000000  0.5521300000000  0.5694450000000 1.0
C      1  0.4999520000000  0.4497420000000  0.4302420000000 1.0
C      1  0.4996500000000  0.4501700000000  0.5697940000000 1.0
C      1  0.4495140000000  0.4835280000000  0.5128560000000 1.0
C      1  0.5504920000000  0.4835130000000  0.4872900000000 1.0
C      1  0.4496140000000  0.5165290000000  0.5127950000000 1.0
C      1  0.5505450000000  0.5164970000000  0.4871820000000 1.0
C      1  0.4846000000000  0.4672420000000  0.4271350000000 1.0
C      1  0.5151040000000  0.4675820000000  0.5730670000000 1.0
C      1  0.4845680000000  0.5327650000000  0.4270790000000 1.0
C      1  0.5143010000000  0.5331820000000  0.5725850000000 1.0
C      1  0.5000490000000  0.5322430000000  0.5419500000000 1.0
C      1  0.4999820000000  0.5319590000000  0.4574850000000 1.0
C      1  0.5002070000000  0.4682010000000  0.5423600000000 1.0
C      1  0.4999950000000  0.4680620000000  0.4575790000000 1.0
C      1  0.5319220000000  0.5331640000000  0.5214380000000 1.0
C      1  0.4681090000000  0.5330660000000  0.4784030000000 1.0
C      1  0.5317670000000  0.4670690000000  0.5216190000000 1.0
C      1  0.4681110000000  0.4670800000000  0.4783890000000 1.0
C      1  0.4351380000000  0.4460160000000  0.5219370000000 1.0
C      1  0.5648740000000  0.4461750000000  0.4780830000000 1.0
C      1  0.4354240000000  0.5538990000000  0.5224090000000 1.0
C      1  0.5649840000000  0.5538040000000  0.4777720000000 1.0
C      1  0.4735370000000  0.5084300000000  0.5252500000000 1.0
C      1  0.5265490000000  0.5083960000000  0.4747000000000 1.0
C      1  0.4735010000000  0.4916670000000  0.5252820000000 1.0
C      1  0.5265240000000  0.4916360000000  0.4747400000000 1.0
C      1  0.5178120000000  0.5284480000000  0.4239380000000 1.0
C      1  0.4899930000000  0.5300230000000  0.5724220000000 1.0
C      1  0.5178050000000  0.4714500000000  0.4240030000000 1.0
C      1  0.4823820000000  0.4711960000000  0.5765660000000 1.0
C      1  0.5437630000000  0.5521510000000  0.5502620000000 1.0
C      1  0.4563380000000  0.5522360000000  0.4495810000000 1.0
C      1  0.5434360000000  0.4479310000000  0.5506030000000 1.0
C      1  0.4563530000000  0.4478740000000  0.4495470000000 1.0
C      1  0.4280560000000  0.5374860000000  0.4946960000000 1.0
C      1  0.5720750000000  0.5373780000000  0.5054230000000 1.0
C      1  0.4279710000000  0.4626360000000  0.4944380000000 1.0
C      1  0.5719850000000  0.4626350000000  0.5056560000000 1.0
END
