TITL C-526663-2196-103 10.9752705584715 1000000 -3661.03974107503 0 0 520 (C2) n - 1
REM
REM in /scratch/bkarasulu/Only-C240
REM
REM
REM
REM
REM
REM ./C.cell (db1db5b03a21c153a00b653f6831bbfd)
REM
REM compiler GCC version 9.2.1 20190827 (Red Hat 9.2.1-1)
REM options -cpp -mtune=generic -march=x86-64 -g -O0 -fpre-include=/usr/include/finclude/math-vector-fortran.h
REM seed -1362613276 659606849 -1910885721 79648101 -1393834546 -1468483360 1136436692 1351433129 1334015182 -1197530845 2099766919 494335287 624557629 1526425567 -1223032380 -2033566498 1857624898 146095345 -530635037 986490209 -1250165913 -932088762 1764038332 -1176944173 -1089297033 1162476218 -1859862960 1968499522 1106088202 1052918119 -1881472534 810284521 1784146815
REM
CELL 1.54180  100.00000  100.00000  100.00000   90.00000   90.00000   90.00000
LATT -1
SFAC C  
C      1  0.5035170000000  0.5780110000000  0.5334280000000 1.0
C      1  0.4963740000000  0.4221830000000  0.5338650000000 1.0
C      1  0.5272600000000  0.4476460000000  0.4963810000000 1.0
C      1  0.4727520000000  0.5523320000000  0.4959910000000 1.0
C      1  0.5608290000000  0.4445080000000  0.4983200000000 1.0
C      1  0.4391770000000  0.5554810000000  0.4978030000000 1.0
C      1  0.5412050000000  0.5159040000000  0.5027450000000 1.0
C      1  0.4587860000000  0.4841120000000  0.5027030000000 1.0
C      1  0.4446570000000  0.4442970000000  0.4828240000000 1.0
C      1  0.5553990000000  0.5556040000000  0.4826840000000 1.0
C      1  0.4775990000000  0.4344290000000  0.5472530000000 1.0
C      1  0.5222480000000  0.5658430000000  0.5469470000000 1.0
C      1  0.4310150000000  0.4622120000000  0.5066700000000 1.0
C      1  0.5689630000000  0.5378260000000  0.5066760000000 1.0
C      1  0.4994570000000  0.4851410000000  0.5372030000000 1.0
C      1  0.5004220000000  0.5150730000000  0.5371190000000 1.0
C      1  0.4280890000000  0.5014830000000  0.5514260000000 1.0
C      1  0.5717430000000  0.4988130000000  0.5516680000000 1.0
C      1  0.4937770000000  0.5185420000000  0.4495910000000 1.0
C      1  0.5063870000000  0.4811680000000  0.4497200000000 1.0
C      1  0.5479290000000  0.4995780000000  0.4349940000000 1.0
C      1  0.4522820000000  0.5000470000000  0.4348370000000 1.0
C      1  0.4350770000000  0.4765640000000  0.5101600000000 1.0
C      1  0.5648900000000  0.5234940000000  0.5102360000000 1.0
C      1  0.5095730000000  0.5360290000000  0.5649810000000 1.0
C      1  0.4902160000000  0.4643460000000  0.5651560000000 1.0
C      1  0.4202060000000  0.5016480000000  0.5391580000000 1.0
C      1  0.5796670000000  0.4985780000000  0.5394260000000 1.0
C      1  0.4822730000000  0.5286600000000  0.5465700000000 1.0
C      1  0.5175750000000  0.4716080000000  0.5467920000000 1.0
C      1  0.4888230000000  0.4099610000000  0.5143610000000 1.0
C      1  0.5111310000000  0.5901210000000  0.5138790000000 1.0
C      1  0.4783650000000  0.5154040000000  0.4996670000000 1.0
C      1  0.5216360000000  0.4845940000000  0.4998260000000 1.0
C      1  0.5844800000000  0.5169020000000  0.5206450000000 1.0
C      1  0.4154530000000  0.4832160000000  0.5204670000000 1.0
C      1  0.5464920000000  0.5696270000000  0.5194430000000 1.0
C      1  0.4534440000000  0.4304850000000  0.5196920000000 1.0
C      1  0.5349480000000  0.5736370000000  0.4624900000000 1.0
C      1  0.4651730000000  0.4261480000000  0.4628010000000 1.0
C      1  0.4333000000000  0.5529780000000  0.4855440000000 1.0
C      1  0.5667460000000  0.4469400000000  0.4860660000000 1.0
C      1  0.4851830000000  0.4565040000000  0.5095190000000 1.0
C      1  0.5147860000000  0.5435500000000  0.5093170000000 1.0
C      1  0.5560720000000  0.5125100000000  0.5315490000000 1.0
C      1  0.4438250000000  0.4876710000000  0.5314380000000 1.0
C      1  0.5076900000000  0.4471520000000  0.4353110000000 1.0
C      1  0.4925200000000  0.5524750000000  0.4349840000000 1.0
C      1  0.4511800000000  0.4970120000000  0.5018280000000 1.0
C      1  0.5488140000000  0.5029990000000  0.5019700000000 1.0
C      1  0.5240450000000  0.5863740000000  0.4955170000000 1.0
C      1  0.4759690000000  0.4136010000000  0.4959360000000 1.0
C      1  0.5416310000000  0.4457620000000  0.5493260000000 1.0
C      1  0.4582090000000  0.5545210000000  0.5488770000000 1.0
C      1  0.5454100000000  0.4495340000000  0.4629700000000 1.0
C      1  0.4547110000000  0.5502520000000  0.4625330000000 1.0
C      1  0.4561720000000  0.4895590000000  0.4664810000000 1.0
C      1  0.5439360000000  0.5102490000000  0.4665640000000 1.0
C      1  0.4624580000000  0.4674700000000  0.4300720000000 1.0
C      1  0.5377700000000  0.5321270000000  0.4300090000000 1.0
C      1  0.5110670000000  0.4639740000000  0.5079130000000 1.0
C      1  0.4889080000000  0.5360710000000  0.5076700000000 1.0
C      1  0.4886260000000  0.5100960000000  0.5306000000000 1.0
C      1  0.5112740000000  0.4900800000000  0.5306940000000 1.0
C      1  0.4675650000000  0.4849830000000  0.5147160000000 1.0
C      1  0.5323870000000  0.5151010000000  0.5147340000000 1.0
C      1  0.4915580000000  0.4691330000000  0.4339040000000 1.0
C      1  0.5086570000000  0.5304860000000  0.4337550000000 1.0
C      1  0.4975790000000  0.5359080000000  0.5290320000000 1.0
C      1  0.5023260000000  0.4642600000000  0.5292460000000 1.0
C      1  0.5474290000000  0.5172940000000  0.4793070000000 1.0
C      1  0.4526380000000  0.4825860000000  0.4792530000000 1.0
C      1  0.5053910000000  0.5449200000000  0.4392080000000 1.0
C      1  0.4948060000000  0.4547310000000  0.4394500000000 1.0
C      1  0.5006130000000  0.5867440000000  0.5223350000000 1.0
C      1  0.4993130000000  0.4133860000000  0.5228310000000 1.0
C      1  0.5060360000000  0.5292230000000  0.4899980000000 1.0
C      1  0.4939960000000  0.4707200000000  0.4901470000000 1.0
C      1  0.4847950000000  0.4451600000000  0.4882660000000 1.0
C      1  0.5152440000000  0.5547720000000  0.4880010000000 1.0
C      1  0.5539580000000  0.5482440000000  0.4703390000000 1.0
C      1  0.4461390000000  0.4515860000000  0.4704420000000 1.0
C      1  0.4716650000000  0.5283760000000  0.4960620000000 1.0
C      1  0.5283470000000  0.4716020000000  0.4963180000000 1.0
C      1  0.5902330000000  0.5177080000000  0.5076780000000 1.0
C      1  0.4097430000000  0.4823350000000  0.5074860000000 1.0
C      1  0.5226210000000  0.4842490000000  0.5392050000000 1.0
C      1  0.4772520000000  0.5159770000000  0.5390400000000 1.0
C      1  0.4851010000000  0.4601980000000  0.4937240000000 1.0
C      1  0.5149200000000  0.5397650000000  0.4935440000000 1.0
C      1  0.4646240000000  0.5029550000000  0.5801750000000 1.0
C      1  0.5351150000000  0.4975070000000  0.5803050000000 1.0
C      1  0.5399670000000  0.5164390000000  0.4530980000000 1.0
C      1  0.4601850000000  0.4832910000000  0.4530640000000 1.0
C      1  0.5151260000000  0.4593880000000  0.5693820000000 1.0
C      1  0.4846490000000  0.5410100000000  0.5690970000000 1.0
C      1  0.5290280000000  0.5533030000000  0.4355840000000 1.0
C      1  0.4711810000000  0.4463270000000  0.4357980000000 1.0
C      1  0.5102920000000  0.5858120000000  0.5002480000000 1.0
C      1  0.4897070000000  0.4141910000000  0.5007090000000 1.0
C      1  0.4822650000000  0.5059150000000  0.4128740000000 1.0
C      1  0.5180180000000  0.4935840000000  0.4129680000000 1.0
C      1  0.4422490000000  0.4664520000000  0.5574400000000 1.0
C      1  0.5575640000000  0.5338790000000  0.5574330000000 1.0
C      1  0.4872240000000  0.5121640000000  0.5803030000000 1.0
C      1  0.5125140000000  0.4882990000000  0.5804130000000 1.0
C      1  0.4387440000000  0.4832690000000  0.4862100000000 1.0
C      1  0.5613010000000  0.5166520000000  0.4863130000000 1.0
C      1  0.5486950000000  0.4875390000000  0.5271520000000 1.0
C      1  0.4512170000000  0.5126160000000  0.5269220000000 1.0
C      1  0.5062090000000  0.4344440000000  0.4415860000000 1.0
C      1  0.4939820000000  0.5652190000000  0.4411900000000 1.0
C      1  0.5449220000000  0.4255600000000  0.5340220000000 1.0
C      1  0.4549680000000  0.5746350000000  0.5334460000000 1.0
C      1  0.4284600000000  0.4600920000000  0.4928670000000 1.0
C      1  0.5715630000000  0.5398670000000  0.4928700000000 1.0
C      1  0.5213840000000  0.5387360000000  0.4155520000000 1.0
C      1  0.4788900000000  0.4607780000000  0.4157070000000 1.0
C      1  0.5025360000000  0.4720200000000  0.5419580000000 1.0
C      1  0.4973280000000  0.5282210000000  0.5417880000000 1.0
C      1  0.4477950000000  0.4950660000000  0.5666230000000 1.0
C      1  0.5519880000000  0.5053180000000  0.5667630000000 1.0
C      1  0.4686020000000  0.5058180000000  0.5443050000000 1.0
C      1  0.5312540000000  0.4944380000000  0.5444400000000 1.0
C      1  0.5440320000000  0.4954450000000  0.5392090000000 1.0
C      1  0.4558410000000  0.5047800000000  0.5390390000000 1.0
C      1  0.4808100000000  0.5400660000000  0.4973110000000 1.0
C      1  0.5191980000000  0.4599190000000  0.4976040000000 1.0
C      1  0.4769650000000  0.4183350000000  0.4597920000000 1.0
C      1  0.5231670000000  0.5814320000000  0.4593980000000 1.0
C      1  0.4587160000000  0.5510680000000  0.4762590000000 1.0
C      1  0.5413610000000  0.4487970000000  0.4766880000000 1.0
C      1  0.4635860000000  0.5355070000000  0.4307610000000 1.0
C      1  0.5366390000000  0.4640960000000  0.4310860000000 1.0
C      1  0.5061870000000  0.4681180000000  0.4579590000000 1.0
C      1  0.4939500000000  0.5316390000000  0.4577560000000 1.0
C      1  0.5479820000000  0.4910420000000  0.4910470000000 1.0
C      1  0.4520480000000  0.5089060000000  0.4908390000000 1.0
C      1  0.5612740000000  0.4571470000000  0.4781040000000 1.0
C      1  0.4387980000000  0.5427260000000  0.4776580000000 1.0
C      1  0.5444050000000  0.4739510000000  0.5305830000000 1.0
C      1  0.4554960000000  0.5262240000000  0.5302880000000 1.0
C      1  0.4746560000000  0.5370810000000  0.4753120000000 1.0
C      1  0.5254240000000  0.4627770000000  0.4756080000000 1.0
C      1  0.4890940000000  0.4691670000000  0.4185230000000 1.0
C      1  0.5111710000000  0.5303630000000  0.4183830000000 1.0
C      1  0.5469930000000  0.4587260000000  0.5506310000000 1.0
C      1  0.4528430000000  0.5415650000000  0.5502400000000 1.0
C      1  0.5310470000000  0.5395470000000  0.4731150000000 1.0
C      1  0.4690400000000  0.4602980000000  0.4732420000000 1.0
C      1  0.4958080000000  0.4810140000000  0.5000140000000 1.0
C      1  0.5041920000000  0.5189860000000  0.4999190000000 1.0
C      1  0.5285790000000  0.4743220000000  0.4545440000000 1.0
C      1  0.4715690000000  0.5254160000000  0.4543040000000 1.0
C      1  0.4725880000000  0.5650170000000  0.4529000000000 1.0
C      1  0.5275640000000  0.4347140000000  0.4533650000000 1.0
C      1  0.5569630000000  0.4581490000000  0.4637290000000 1.0
C      1  0.4431560000000  0.5416410000000  0.4633030000000 1.0
C      1  0.5810280000000  0.5031720000000  0.5256390000000 1.0
C      1  0.4188890000000  0.4969750000000  0.5253930000000 1.0
C      1  0.5466330000000  0.5430560000000  0.5555730000000 1.0
C      1  0.4531860000000  0.4572640000000  0.5556680000000 1.0
C      1  0.4753030000000  0.4115080000000  0.5190330000000 1.0
C      1  0.5246360000000  0.5886010000000  0.5186040000000 1.0
C      1  0.5308100000000  0.5567330000000  0.4921990000000 1.0
C      1  0.4692150000000  0.4432220000000  0.4924260000000 1.0
C      1  0.4319680000000  0.5051880000000  0.4511880000000 1.0
C      1  0.5681900000000  0.4945320000000  0.4514400000000 1.0
C      1  0.5140870000000  0.5559240000000  0.5540740000000 1.0
C      1  0.4857370000000  0.4443880000000  0.5543490000000 1.0
C      1  0.5335620000000  0.4519550000000  0.4389900000000 1.0
C      1  0.4666370000000  0.5476930000000  0.4386060000000 1.0
C      1  0.4830410000000  0.4171000000000  0.4733530000000 1.0
C      1  0.5170460000000  0.5827450000000  0.4729310000000 1.0
C      1  0.4530410000000  0.5072770000000  0.5726860000000 1.0
C      1  0.5467220000000  0.4931420000000  0.5728790000000 1.0
C      1  0.4250920000000  0.4816750000000  0.4596700000000 1.0
C      1  0.5750390000000  0.5180930000000  0.4598090000000 1.0
C      1  0.5612710000000  0.4575280000000  0.5291870000000 1.0
C      1  0.4386350000000  0.5426390000000  0.5287430000000 1.0
C      1  0.5619090000000  0.4804550000000  0.5068370000000 1.0
C      1  0.4380690000000  0.5195830000000  0.5065230000000 1.0
C      1  0.4759510000000  0.5041260000000  0.4616800000000 1.0
C      1  0.5241740000000  0.4956540000000  0.4617830000000 1.0
C      1  0.4928640000000  0.4758320000000  0.4772680000000 1.0
C      1  0.5072100000000  0.5240370000000  0.4771530000000 1.0
C      1  0.5698100000000  0.4654150000000  0.5209230000000 1.0
C      1  0.4301230000000  0.5347040000000  0.5204970000000 1.0
C      1  0.4698170000000  0.4565110000000  0.4252100000000 1.0
C      1  0.5304260000000  0.5430580000000  0.4250590000000 1.0
C      1  0.4646330000000  0.4558440000000  0.4976590000000 1.0
C      1  0.5353750000000  0.5441430000000  0.4975200000000 1.0
C      1  0.5137750000000  0.5075970000000  0.4416910000000 1.0
C      1  0.4864140000000  0.4920680000000  0.4416910000000 1.0
C      1  0.4527350000000  0.4670060000000  0.5235340000000 1.0
C      1  0.5471880000000  0.5331300000000  0.5234970000000 1.0
C      1  0.4917090000000  0.4284530000000  0.4692350000000 1.0
C      1  0.5083910000000  0.5713690000000  0.4688510000000 1.0
C      1  0.5138870000000  0.5118530000000  0.4764630000000 1.0
C      1  0.4861900000000  0.4880120000000  0.4764870000000 1.0
C      1  0.4835990000000  0.4912960000000  0.4119050000000 1.0
C      1  0.5166870000000  0.5081970000000  0.4119100000000 1.0
C      1  0.5497600000000  0.5435630000000  0.4476590000000 1.0
C      1  0.4504100000000  0.4561360000000  0.4477490000000 1.0
C      1  0.4991380000000  0.5448780000000  0.4533010000000 1.0
C      1  0.5010130000000  0.4548540000000  0.4535640000000 1.0
C      1  0.5232110000000  0.5336250000000  0.4627190000000 1.0
C      1  0.4769100000000  0.4661610000000  0.4628380000000 1.0
C      1  0.5589400000000  0.5416800000000  0.4587940000000 1.0
C      1  0.4411940000000  0.4580830000000  0.4588430000000 1.0
C      1  0.4132880000000  0.4779620000000  0.4935220000000 1.0
C      1  0.5867330000000  0.5220010000000  0.4936770000000 1.0
C      1  0.4745970000000  0.5064820000000  0.4881310000000 1.0
C      1  0.5254410000000  0.4934500000000  0.4882510000000 1.0
C      1  0.5300180000000  0.5414090000000  0.5110120000000 1.0
C      1  0.4699460000000  0.4586540000000  0.5111530000000 1.0
C      1  0.4589880000000  0.4384050000000  0.4826570000000 1.0
C      1  0.5410690000000  0.5614940000000  0.4824360000000 1.0
C      1  0.5213930000000  0.4963310000000  0.4407310000000 1.0
C      1  0.4788000000000  0.5033280000000  0.4406420000000 1.0
C      1  0.5437910000000  0.4792150000000  0.5681800000000 1.0
C      1  0.4559880000000  0.5211770000000  0.5679170000000 1.0
C      1  0.4713370000000  0.5575940000000  0.5553210000000 1.0
C      1  0.5284820000000  0.4427250000000  0.5557450000000 1.0
C      1  0.5475060000000  0.4383710000000  0.5379860000000 1.0
C      1  0.4523720000000  0.5618460000000  0.5374760000000 1.0
C      1  0.4897060000000  0.4641250000000  0.5222400000000 1.0
C      1  0.5102220000000  0.5360030000000  0.5220660000000 1.0
C      1  0.5086170000000  0.4831050000000  0.4148300000000 1.0
C      1  0.4916600000000  0.5164050000000  0.4147070000000 1.0
C      1  0.5541880000000  0.4655520000000  0.5392340000000 1.0
C      1  0.4456850000000  0.5346720000000  0.5388590000000 1.0
C      1  0.5042280000000  0.4759810000000  0.4357090000000 1.0
C      1  0.4959810000000  0.5236490000000  0.4355590000000 1.0
C      1  0.5041090000000  0.5066240000000  0.4528160000000 1.0
C      1  0.4960440000000  0.4931040000000  0.4528420000000 1.0
C      1  0.4738140000000  0.5431460000000  0.5266360000000 1.0
C      1  0.5260990000000  0.4570080000000  0.5269690000000 1.0
C      1  0.5334620000000  0.5405930000000  0.5615130000000 1.0
C      1  0.4663380000000  0.4597610000000  0.5616360000000 1.0
C      1  0.5829840000000  0.4886780000000  0.4938660000000 1.0
C      1  0.4170360000000  0.5112860000000  0.4935310000000 1.0
C      1  0.4625880000000  0.4254460000000  0.4769150000000 1.0
C      1  0.5374880000000  0.5744200000000  0.4766080000000 1.0
C      1  0.4849390000000  0.4436800000000  0.4386530000000 1.0
C      1  0.5152610000000  0.5559660000000  0.4383800000000 1.0
C      1  0.4172500000000  0.4997390000000  0.4839240000000 1.0
C      1  0.5828020000000  0.5001690000000  0.4841910000000 1.0
C      1  0.4849600000000  0.4867530000000  0.5351150000000 1.0
C      1  0.5149260000000  0.5134490000000  0.5350870000000 1.0
C      1  0.5132590000000  0.4736660000000  0.4246560000000 1.0
C      1  0.4869860000000  0.5259000000000  0.4244630000000 1.0
C      1  0.5098110000000  0.5579430000000  0.4739940000000 1.0
C      1  0.4902730000000  0.4419080000000  0.4742960000000 1.0
C      1  0.4629130000000  0.5121910000000  0.4809180000000 1.0
C      1  0.5371490000000  0.4877000000000  0.4811090000000 1.0
C      1  0.5412360000000  0.4889460000000  0.4279930000000 1.0
C      1  0.4589980000000  0.5106390000000  0.4277960000000 1.0
C      1  0.4073490000000  0.4903500000000  0.4891360000000 1.0
C      1  0.5926860000000  0.5095880000000  0.4893820000000 1.0
C      1  0.5375070000000  0.4477840000000  0.5192680000000 1.0
C      1  0.4624310000000  0.5523250000000  0.5188450000000 1.0
C      1  0.4859300000000  0.4946050000000  0.4644900000000 1.0
C      1  0.5141850000000  0.5051910000000  0.4645050000000 1.0
C      1  0.4794520000000  0.5132990000000  0.4507540000000 1.0
C      1  0.5207080000000  0.4864180000000  0.4508980000000 1.0
C      1  0.5628700000000  0.4881610000000  0.5218310000000 1.0
C      1  0.4370590000000  0.5119640000000  0.5215580000000 1.0
C      1  0.4368420000000  0.4484060000000  0.4937520000000 1.0
C      1  0.5631780000000  0.5515570000000  0.4936600000000 1.0
C      1  0.4929240000000  0.4996730000000  0.5820040000000 1.0
C      1  0.5068090000000  0.5007990000000  0.5820230000000 1.0
C      1  0.4481170000000  0.4446690000000  0.5193820000000 1.0
C      1  0.5518200000000  0.5554420000000  0.5192320000000 1.0
C      1  0.5209840000000  0.5458940000000  0.5642690000000 1.0
C      1  0.4788070000000  0.4544770000000  0.5644640000000 1.0
C      1  0.5364450000000  0.5636000000000  0.5422790000000 1.0
C      1  0.4634170000000  0.4366440000000  0.5425260000000 1.0
C      1  0.4606730000000  0.4483230000000  0.4698220000000 1.0
C      1  0.5394250000000  0.5515030000000  0.4696530000000 1.0
C      1  0.5019420000000  0.4551650000000  0.5669240000000 1.0
C      1  0.4978410000000  0.5452190000000  0.5666580000000 1.0
C      1  0.5104520000000  0.4209930000000  0.5177860000000 1.0
C      1  0.4894910000000  0.5791080000000  0.5172970000000 1.0
C      1  0.4630300000000  0.5546270000000  0.4512950000000 1.0
C      1  0.5371280000000  0.4450940000000  0.4517310000000 1.0
C      1  0.5425380000000  0.4245140000000  0.5204080000000 1.0
C      1  0.4573960000000  0.5756020000000  0.5198350000000 1.0
C      1  0.4980690000000  0.5551380000000  0.5568820000000 1.0
C      1  0.5017450000000  0.4451900000000  0.5572040000000 1.0
C      1  0.5405830000000  0.5137180000000  0.5661130000000 1.0
C      1  0.4592020000000  0.4866630000000  0.5660580000000 1.0
C      1  0.4877930000000  0.5436040000000  0.5203380000000 1.0
C      1  0.5121400000000  0.4565140000000  0.5206290000000 1.0
C      1  0.4706720000000  0.4731110000000  0.4516420000000 1.0
C      1  0.5294850000000  0.5266100000000  0.4515830000000 1.0
C      1  0.4615230000000  0.4279270000000  0.5313600000000 1.0
C      1  0.5383760000000  0.5722530000000  0.5310690000000 1.0
C      1  0.5142520000000  0.5091550000000  0.5005830000000 1.0
C      1  0.4857470000000  0.4908480000000  0.5005890000000 1.0
C      1  0.5275260000000  0.4911760000000  0.5127860000000 1.0
C      1  0.4724330000000  0.5088970000000  0.5126460000000 1.0
C      1  0.5403050000000  0.5451610000000  0.5199130000000 1.0
C      1  0.4596300000000  0.4549540000000  0.5200410000000 1.0
C      1  0.4817320000000  0.5274760000000  0.5627610000000 1.0
C      1  0.5180640000000  0.4728850000000  0.5629770000000 1.0
C      1  0.4922590000000  0.4322440000000  0.4437110000000 1.0
C      1  0.5079250000000  0.5674310000000  0.4433470000000 1.0
C      1  0.4380770000000  0.4897920000000  0.5001270000000 1.0
C      1  0.5619220000000  0.5102090000000  0.5002690000000 1.0
C      1  0.5625350000000  0.4831040000000  0.4604830000000 1.0
C      1  0.4375940000000  0.5166680000000  0.4601830000000 1.0
C      1  0.5565010000000  0.4702470000000  0.4566120000000 1.0
C      1  0.4436410000000  0.5295020000000  0.4562580000000 1.0
C      1  0.5221110000000  0.5343410000000  0.5420100000000 1.0
C      1  0.4777520000000  0.4659010000000  0.5421350000000 1.0
C      1  0.4311260000000  0.4682970000000  0.4596150000000 1.0
C      1  0.5690050000000  0.5314700000000  0.4596580000000 1.0
C      1  0.5758480000000  0.4799540000000  0.5252960000000 1.0
C      1  0.4240710000000  0.5201900000000  0.5249330000000 1.0
C      1  0.5618950000000  0.4907690000000  0.4853210000000 1.0
C      1  0.4381530000000  0.5091460000000  0.4850670000000 1.0
C      1  0.4288880000000  0.5165090000000  0.5505350000000 1.0
C      1  0.5709470000000  0.4837830000000  0.5508600000000 1.0
C      1  0.4702540000000  0.4898810000000  0.4183150000000 1.0
C      1  0.5300120000000  0.5096490000000  0.4183550000000 1.0
C      1  0.4774580000000  0.4918300000000  0.4880620000000 1.0
C      1  0.5225810000000  0.5081010000000  0.4880890000000 1.0
C      1  0.4736730000000  0.5137800000000  0.5803310000000 1.0
C      1  0.5260650000000  0.4866830000000  0.5804950000000 1.0
C      1  0.5384390000000  0.4955360000000  0.4670930000000 1.0
C      1  0.4616680000000  0.5042740000000  0.4669430000000 1.0
C      1  0.4235390000000  0.4728510000000  0.4704720000000 1.0
C      1  0.5765570000000  0.5269790000000  0.4705650000000 1.0
C      1  0.5524790000000  0.4461960000000  0.5248710000000 1.0
C      1  0.4474410000000  0.5539460000000  0.5243900000000 1.0
C      1  0.4459120000000  0.5755860000000  0.5117320000000 1.0
C      1  0.5540490000000  0.4244830000000  0.5123420000000 1.0
C      1  0.5789270000000  0.4962040000000  0.4708510000000 1.0
C      1  0.4211690000000  0.5036280000000  0.4705730000000 1.0
C      1  0.4769080000000  0.5358800000000  0.4247640000000 1.0
C      1  0.5233360000000  0.4636880000000  0.4250470000000 1.0
C      1  0.5469030000000  0.5537430000000  0.5447080000000 1.0
C      1  0.4529520000000  0.4465150000000  0.5448640000000 1.0
C      1  0.4491900000000  0.4754110000000  0.5114770000000 1.0
C      1  0.5507730000000  0.5246550000000  0.5115010000000 1.0
C      1  0.5197620000000  0.5276110000000  0.5294610000000 1.0
C      1  0.4801420000000  0.4725590000000  0.5295550000000 1.0
C      1  0.4522120000000  0.5106730000000  0.4561800000000 1.0
C      1  0.5479300000000  0.4890760000000  0.4563970000000 1.0
C      1  0.4320440000000  0.4959310000000  0.4871350000000 1.0
C      1  0.5679980000000  0.5039950000000  0.4873320000000 1.0
C      1  0.4847370000000  0.5543250000000  0.5489780000000 1.0
C      1  0.5151030000000  0.4459580000000  0.5493390000000 1.0
C      1  0.5270690000000  0.5810680000000  0.5301220000000 1.0
C      1  0.4728320000000  0.4191070000000  0.5305000000000 1.0
C      1  0.5305660000000  0.5101210000000  0.5759030000000 1.0
C      1  0.4691870000000  0.4903160000000  0.5758600000000 1.0
C      1  0.4592320000000  0.4658310000000  0.4437170000000 1.0
C      1  0.5409510000000  0.5338450000000  0.4436540000000 1.0
C      1  0.5485600000000  0.4612790000000  0.4852630000000 1.0
C      1  0.4514890000000  0.5386350000000  0.4848820000000 1.0
C      1  0.4666650000000  0.5657320000000  0.5145890000000 1.0
C      1  0.5332870000000  0.4343530000000  0.5150750000000 1.0
C      1  0.5169040000000  0.5039420000000  0.5596240000000 1.0
C      1  0.4829020000000  0.4964010000000  0.5595900000000 1.0
C      1  0.4349770000000  0.4754720000000  0.5353380000000 1.0
C      1  0.5649080000000  0.5247310000000  0.5354080000000 1.0
C      1  0.5441630000000  0.5785780000000  0.5093350000000 1.0
C      1  0.4558060000000  0.4214770000000  0.5096430000000 1.0
C      1  0.5200380000000  0.5212970000000  0.4398670000000 1.0
C      1  0.4801570000000  0.4783570000000  0.4399260000000 1.0
C      1  0.5474310000000  0.4814240000000  0.5036370000000 1.0
C      1  0.4525580000000  0.5185970000000  0.5033760000000 1.0
C      1  0.5447840000000  0.5184340000000  0.5234590000000 1.0
C      1  0.4551400000000  0.4817010000000  0.5234190000000 1.0
C      1  0.5273170000000  0.5831180000000  0.4825380000000 1.0
C      1  0.4727390000000  0.4167820000000  0.4829280000000 1.0
C      1  0.5242010000000  0.4344950000000  0.5041080000000 1.0
C      1  0.4757870000000  0.5655270000000  0.5036520000000 1.0
C      1  0.4833220000000  0.5700090000000  0.4486450000000 1.0
C      1  0.5168440000000  0.4296970000000  0.4491030000000 1.0
C      1  0.4761670000000  0.5179370000000  0.5242220000000 1.0
C      1  0.5237540000000  0.4822030000000  0.5244020000000 1.0
C      1  0.5687060000000  0.4866170000000  0.4728670000000 1.0
C      1  0.4313830000000  0.5132260000000  0.4725670000000 1.0
C      1  0.4785810000000  0.4953130000000  0.5133840000000 1.0
C      1  0.5213760000000  0.5047640000000  0.5134270000000 1.0
C      1  0.5067650000000  0.4310610000000  0.5283010000000 1.0
C      1  0.4931430000000  0.5691000000000  0.5278810000000 1.0
C      1  0.4980590000000  0.5562490000000  0.5218890000000 1.0
C      1  0.5018690000000  0.4438770000000  0.5222190000000 1.0
C      1  0.4644990000000  0.4801170000000  0.4889900000000 1.0
C      1  0.5355360000000  0.5198200000000  0.4889910000000 1.0
C      1  0.5612170000000  0.5084490000000  0.5553420000000 1.0
C      1  0.4386030000000  0.4918690000000  0.5551910000000 1.0
C      1  0.5271020000000  0.5277590000000  0.5172590000000 1.0
C      1  0.4728420000000  0.4723400000000  0.5173310000000 1.0
C      1  0.4941560000000  0.5045150000000  0.5583660000000 1.0
C      1  0.5056540000000  0.4958210000000  0.5584100000000 1.0
C      1  0.4151210000000  0.5097290000000  0.5181630000000 1.0
C      1  0.5848190000000  0.4903760000000  0.5184950000000 1.0
C      1  0.4239420000000  0.4962140000000  0.4587790000000 1.0
C      1  0.5761920000000  0.5035490000000  0.4590050000000 1.0
C      1  0.5302150000000  0.5346320000000  0.4875380000000 1.0
C      1  0.4698250000000  0.4652970000000  0.4876390000000 1.0
C      1  0.5435910000000  0.4758810000000  0.4502930000000 1.0
C      1  0.4565710000000  0.5238320000000  0.4500130000000 1.0
C      1  0.4469250000000  0.5428730000000  0.4996430000000 1.0
C      1  0.5530760000000  0.4571260000000  0.5000630000000 1.0
C      1  0.4696450000000  0.5233000000000  0.5707950000000 1.0
C      1  0.5301250000000  0.4771090000000  0.5710260000000 1.0
C      1  0.4502720000000  0.4918780000000  0.5439220000000 1.0
C      1  0.5495850000000  0.5083750000000  0.5440360000000 1.0
C      1  0.4753800000000  0.4923930000000  0.5478260000000 1.0
C      1  0.5244650000000  0.5078830000000  0.5478610000000 1.0
C      1  0.4641790000000  0.5281600000000  0.4826210000000 1.0
C      1  0.5358770000000  0.4717410000000  0.4829000000000 1.0
C      1  0.4764070000000  0.5517470000000  0.5661060000000 1.0
C      1  0.5233770000000  0.4486350000000  0.5664790000000 1.0
C      1  0.5634850000000  0.4662580000000  0.5083650000000 1.0
C      1  0.4364880000000  0.5337890000000  0.5079640000000 1.0
C      1  0.4255560000000  0.4723420000000  0.4854060000000 1.0
C      1  0.5744920000000  0.5275740000000  0.4854900000000 1.0
C      1  0.4833370000000  0.4241370000000  0.5389090000000 1.0
C      1  0.5165370000000  0.5760860000000  0.5385260000000 1.0
C      1  0.4798100000000  0.5332310000000  0.4627730000000 1.0
C      1  0.5203110000000  0.4665560000000  0.4630310000000 1.0
C      1  0.4674730000000  0.5298090000000  0.5225500000000 1.0
C      1  0.5324540000000  0.4703220000000  0.5228260000000 1.0
C      1  0.4928210000000  0.4772760000000  0.5715020000000 1.0
C      1  0.5069470000000  0.5231350000000  0.5713930000000 1.0
C      1  0.4385000000000  0.4498710000000  0.5083430000000 1.0
C      1  0.5614730000000  0.5501770000000  0.5082540000000 1.0
C      1  0.5065680000000  0.4824410000000  0.5681710000000 1.0
C      1  0.4932100000000  0.5179510000000  0.5680470000000 1.0
C      1  0.5326080000000  0.5182240000000  0.4300380000000 1.0
C      1  0.4676200000000  0.4813740000000  0.4300390000000 1.0
C      1  0.4586320000000  0.4886290000000  0.4393880000000 1.0
C      1  0.5415640000000  0.5110220000000  0.4394590000000 1.0
C      1  0.5556770000000  0.5508760000000  0.5340100000000 1.0
C      1  0.4442120000000  0.4493200000000  0.5341210000000 1.0
C      1  0.4603170000000  0.5453540000000  0.5055720000000 1.0
C      1  0.5396640000000  0.4546790000000  0.5059620000000 1.0
C      1  0.4300080000000  0.5164160000000  0.4946190000000 1.0
C      1  0.5700090000000  0.4835540000000  0.4949410000000 1.0
C      1  0.5080770000000  0.5332400000000  0.4663120000000 1.0
C      1  0.4920320000000  0.4665660000000  0.4664780000000 1.0
C      1  0.4338750000000  0.4983010000000  0.5255260000000 1.0
C      1  0.5660420000000  0.5018460000000  0.5257310000000 1.0
C      1  0.4719130000000  0.5511550000000  0.4810910000000 1.0
C      1  0.5281480000000  0.4487370000000  0.4814770000000 1.0
C      1  0.5636820000000  0.5235360000000  0.5516950000000 1.0
C      1  0.4361500000000  0.4767610000000  0.5516220000000 1.0
C      1  0.5582760000000  0.4373770000000  0.5109980000000 1.0
C      1  0.4416890000000  0.5626850000000  0.5104480000000 1.0
C      1  0.4870300000000  0.5746220000000  0.5040970000000 1.0
C      1  0.5129560000000  0.4254020000000  0.5045690000000 1.0
C      1  0.4941420000000  0.4816830000000  0.4128930000000 1.0
C      1  0.5061410000000  0.5178150000000  0.4128090000000 1.0
C      1  0.5787630000000  0.4842490000000  0.5388440000000 1.0
C      1  0.4211120000000  0.5159740000000  0.5384970000000 1.0
C      1  0.5217680000000  0.4580460000000  0.5416330000000 1.0
C      1  0.4780970000000  0.5421920000000  0.5413200000000 1.0
C      1  0.4492040000000  0.5303470000000  0.5591690000000 1.0
C      1  0.5506030000000  0.4699950000000  0.5595080000000 1.0
C      1  0.4575780000000  0.5234110000000  0.4344450000000 1.0
C      1  0.5426340000000  0.4762130000000  0.4347200000000 1.0
C      1  0.4670180000000  0.4140950000000  0.5075270000000 1.0
C      1  0.5329580000000  0.5859470000000  0.5071400000000 1.0
C      1  0.5089660000000  0.5334960000000  0.5496430000000 1.0
C      1  0.4908720000000  0.4667900000000  0.5498060000000 1.0
C      1  0.4935840000000  0.4379450000000  0.4978820000000 1.0
C      1  0.5064240000000  0.5620420000000  0.4975460000000 1.0
C      1  0.5082350000000  0.4784020000000  0.5056050000000 1.0
C      1  0.4917480000000  0.5216300000000  0.5054540000000 1.0
C      1  0.5426730000000  0.4921080000000  0.5129930000000 1.0
C      1  0.4572850000000  0.5079660000000  0.5128090000000 1.0
C      1  0.5611580000000  0.4738560000000  0.5505850000000 1.0
C      1  0.4386780000000  0.5264350000000  0.5502350000000 1.0
C      1  0.4624920000000  0.5305710000000  0.5073800000000 1.0
C      1  0.5374830000000  0.4694720000000  0.5076780000000 1.0
C      1  0.5075300000000  0.5560640000000  0.5101110000000 1.0
C      1  0.4924360000000  0.4439950000000  0.5104090000000 1.0
C      1  0.4932430000000  0.4526250000000  0.5309550000000 1.0
C      1  0.5066570000000  0.5475530000000  0.5307030000000 1.0
C      1  0.5898670000000  0.4924710000000  0.5056030000000 1.0
C      1  0.4101160000000  0.5075600000000  0.5052680000000 1.0
C      1  0.5332030000000  0.5307060000000  0.5506480000000 1.0
C      1  0.4666330000000  0.4695850000000  0.5507150000000 1.0
C      1  0.4042370000000  0.4947550000000  0.5024970000000 1.0
C      1  0.5957550000000  0.5052600000000  0.5027780000000 1.0
C      1  0.5733270000000  0.5251050000000  0.5228550000000 1.0
C      1  0.4265980000000  0.4750260000000  0.5227610000000 1.0
C      1  0.4603570000000  0.4457150000000  0.4457760000000 1.0
C      1  0.5398190000000  0.5539730000000  0.4455940000000 1.0
C      1  0.4999980000000  0.4248240000000  0.4972530000000 1.0
C      1  0.5000120000000  0.5751590000000  0.4968210000000 1.0
C      1  0.5156610000000  0.5115800000000  0.5735110000000 1.0
C      1  0.4841000000000  0.4888430000000  0.5735250000000 1.0
C      1  0.4865460000000  0.4968320000000  0.5253240000000 1.0
C      1  0.5133710000000  0.5033140000000  0.5253490000000 1.0
C      1  0.4796490000000  0.5480140000000  0.4319360000000 1.0
C      1  0.5205710000000  0.4515950000000  0.4322800000000 1.0
C      1  0.5581450000000  0.5368100000000  0.5314420000000 1.0
C      1  0.4417530000000  0.4633710000000  0.5314650000000 1.0
C      1  0.4864600000000  0.4539860000000  0.5434040000000 1.0
C      1  0.5133990000000  0.5462630000000  0.5431820000000 1.0
C      1  0.4620430000000  0.4391730000000  0.4581640000000 1.0
C      1  0.5380940000000  0.5605860000000  0.4579380000000 1.0
C      1  0.5370710000000  0.5165710000000  0.5514640000000 1.0
C      1  0.4627620000000  0.4837250000000  0.5514380000000 1.0
C      1  0.5319070000000  0.4952050000000  0.4186700000000 1.0
C      1  0.4683580000000  0.5043260000000  0.4185400000000 1.0
C      1  0.5114390000000  0.5745570000000  0.4544930000000 1.0
C      1  0.4887080000000  0.4251830000000  0.4548860000000 1.0
C      1  0.5050600000000  0.5477910000000  0.4659740000000 1.0
C      1  0.4950500000000  0.4520140000000  0.4662330000000 1.0
C      1  0.5558600000000  0.4965940000000  0.4459170000000 1.0
C      1  0.4443160000000  0.5030940000000  0.4457170000000 1.0
END
