TITL C-526663-2196-10 -62.1703901870833 1000000 -3728.2742867527 0 0 520 (C1) n - 1
REM
REM in /scratch/bkarasulu/Only-C240
REM
REM
REM
REM
REM
REM ./C.cell (db1db5b03a21c153a00b653f6831bbfd)
REM
REM compiler GCC version 9.2.1 20190827 (Red Hat 9.2.1-1)
REM options -cpp -mtune=generic -march=x86-64 -g -O0 -fpre-include=/usr/include/finclude/math-vector-fortran.h
REM seed 1070248240 446943902 85875472 -7324311 -1341676566 331323772 -249400298 -1735820038 1260427 1875790340 -1730639893 -2123045165 -953495221 -1675903511 1828182551 752789518 -783271589 -1886833300 833039611 1337047532 157163598 -595379167 -1668678311 -805330740 -425790694 100926648 1171980172 -743751486 1251072836 1531089365 1045018920 256661144 1845817229
REM
CELL 1.54180  100.00000  100.00000  100.00000   90.00000   90.00000   90.00000
LATT -1
SFAC C  
C      1  0.4702940000000  0.4709270000000  0.5732460000000 1.0
C      1  0.4690110000000  0.5715880000000  0.4690320000000 1.0
C      1  0.5722650000000  0.4736250000000  0.4707510000000 1.0
C      1  0.5306780000000  0.5292900000000  0.5742010000000 1.0
C      1  0.4702500000000  0.5282120000000  0.4271610000000 1.0
C      1  0.5313480000000  0.4713580000000  0.4278070000000 1.0
C      1  0.5331520000000  0.4261390000000  0.4689990000000 1.0
C      1  0.4654140000000  0.4305040000000  0.5304200000000 1.0
C      1  0.5345040000000  0.5715770000000  0.5323780000000 1.0
C      1  0.4256350000000  0.5274500000000  0.4660680000000 1.0
C      1  0.5731370000000  0.5264630000000  0.5328230000000 1.0
C      1  0.4278110000000  0.4743200000000  0.5340590000000 1.0
C      1  0.5269680000000  0.5696460000000  0.5104970000000 1.0
C      1  0.5663640000000  0.5087240000000  0.5206580000000 1.0
C      1  0.5114510000000  0.5187650000000  0.5678310000000 1.0
C      1  0.4727150000000  0.4336160000000  0.5087950000000 1.0
C      1  0.5199830000000  0.4303650000000  0.4872740000000 1.0
C      1  0.4813560000000  0.5731710000000  0.4879060000000 1.0
C      1  0.4333210000000  0.4935220000000  0.5238050000000 1.0
C      1  0.5665990000000  0.4925590000000  0.4822290000000 1.0
C      1  0.4276140000000  0.5072980000000  0.4760070000000 1.0
C      1  0.4894320000000  0.4815190000000  0.5681160000000 1.0
C      1  0.5110130000000  0.4806260000000  0.4331590000000 1.0
C      1  0.4901570000000  0.5184320000000  0.4311950000000 1.0
C      1  0.5079560000000  0.5765200000000  0.4633430000000 1.0
C      1  0.5754070000000  0.4664890000000  0.5114600000000 1.0
C      1  0.4669850000000  0.5139370000000  0.5765650000000 1.0
C      1  0.4926610000000  0.4229290000000  0.4626710000000 1.0
C      1  0.5066590000000  0.4252690000000  0.5333440000000 1.0
C      1  0.4934850000000  0.5755140000000  0.5344180000000 1.0
C      1  0.4274270000000  0.5323950000000  0.5192710000000 1.0
C      1  0.5779570000000  0.5337450000000  0.4891120000000 1.0
C      1  0.4204350000000  0.4623360000000  0.4852340000000 1.0
C      1  0.5341250000000  0.4867880000000  0.5759690000000 1.0
C      1  0.4649110000000  0.4866390000000  0.4245150000000 1.0
C      1  0.5345440000000  0.5128070000000  0.4250470000000 1.0
C      1  0.5244430000000  0.5375640000000  0.5630820000000 1.0
C      1  0.5412610000000  0.5593860000000  0.5266570000000 1.0
C      1  0.5615730000000  0.5201170000000  0.5401350000000 1.0
C      1  0.4765680000000  0.4628990000000  0.5621450000000 1.0
C      1  0.5252100000000  0.4629270000000  0.4385680000000 1.0
C      1  0.4777020000000  0.5373770000000  0.4361930000000 1.0
C      1  0.4585260000000  0.4430630000000  0.5250270000000 1.0
C      1  0.5426650000000  0.4293450000000  0.4786570000000 1.0
C      1  0.4612290000000  0.5645720000000  0.4796280000000 1.0
C      1  0.4387710000000  0.4806180000000  0.5423310000000 1.0
C      1  0.5618940000000  0.4802650000000  0.4626790000000 1.0
C      1  0.4293460000000  0.5187570000000  0.4557220000000 1.0
C      1  0.4436200000000  0.4594100000000  0.4516580000000 1.0
C      1  0.4638380000000  0.4502580000000  0.4433600000000 1.0
C      1  0.4549760000000  0.4414260000000  0.4641540000000 1.0
C      1  0.5560970000000  0.5400370000000  0.4543250000000 1.0
C      1  0.4457780000000  0.5399800000000  0.5484500000000 1.0
C      1  0.5547190000000  0.4609080000000  0.5469390000000 1.0
C      1  0.5362480000000  0.5496000000000  0.4448880000000 1.0
C      1  0.4661860000000  0.5490650000000  0.5553670000000 1.0
C      1  0.5344590000000  0.4514660000000  0.5549280000000 1.0
C      1  0.5459240000000  0.5591670000000  0.4659010000000 1.0
C      1  0.4548530000000  0.5592060000000  0.5361810000000 1.0
C      1  0.5451010000000  0.4415170000000  0.5353980000000 1.0
C      1  0.5113700000000  0.4499280000000  0.5658350000000 1.0
C      1  0.4563240000000  0.5732470000000  0.5140000000000 1.0
C      1  0.5666840000000  0.5161830000000  0.4515040000000 1.0
C      1  0.4894990000000  0.5506030000000  0.5662260000000 1.0
C      1  0.5133140000000  0.5503810000000  0.4329870000000 1.0
C      1  0.4864040000000  0.4473450000000  0.4309460000000 1.0
C      1  0.5437520000000  0.4258800000000  0.5138110000000 1.0
C      1  0.4615520000000  0.4306730000000  0.4874910000000 1.0
C      1  0.5385550000000  0.5714270000000  0.4889140000000 1.0
C      1  0.4317540000000  0.4822340000000  0.4473380000000 1.0
C      1  0.5652590000000  0.4843620000000  0.5507340000000 1.0
C      1  0.4351360000000  0.5169560000000  0.5539800000000 1.0
C      1  0.5323250000000  0.4905130000000  0.5088200000000 1.0
C      1  0.4879780000000  0.5087060000000  0.5325380000000 1.0
C      1  0.5122910000000  0.5321060000000  0.4922700000000 1.0
C      1  0.4618300000000  0.5125620000000  0.5044340000000 1.0
C      1  0.5324830000000  0.5122440000000  0.4914990000000 1.0
C      1  0.4580120000000  0.4873790000000  0.4922370000000 1.0
C      1  0.5109730000000  0.4916890000000  0.5331850000000 1.0
C      1  0.4923720000000  0.4870520000000  0.4660890000000 1.0
C      1  0.5138600000000  0.5062840000000  0.4651660000000 1.0
C      1  0.4939010000000  0.4671270000000  0.4859640000000 1.0
C      1  0.5109090000000  0.4677190000000  0.5071690000000 1.0
C      1  0.4893020000000  0.5305900000000  0.5093800000000 1.0
C      1  0.4552790000000  0.4772280000000  0.4696110000000 1.0
C      1  0.4793390000000  0.4693490000000  0.4544680000000 1.0
C      1  0.4710210000000  0.4569680000000  0.4795400000000 1.0
C      1  0.5441530000000  0.5238400000000  0.4721220000000 1.0
C      1  0.4545660000000  0.5242760000000  0.5267820000000 1.0
C      1  0.5432230000000  0.4775240000000  0.5279670000000 1.0
C      1  0.5208530000000  0.5296440000000  0.4577590000000 1.0
C      1  0.4802880000000  0.5303490000000  0.5416960000000 1.0
C      1  0.5200780000000  0.4709260000000  0.5412680000000 1.0
C      1  0.5292240000000  0.5458940000000  0.4811300000000 1.0
C      1  0.4705160000000  0.5443300000000  0.5188010000000 1.0
C      1  0.5294180000000  0.4550560000000  0.5180610000000 1.0
C      1  0.5053730000000  0.5364810000000  0.5465680000000 1.0
C      1  0.5390720000000  0.5471190000000  0.5057700000000 1.0
C      1  0.5438220000000  0.5025560000000  0.5358210000000 1.0
C      1  0.4955460000000  0.4639540000000  0.5461080000000 1.0
C      1  0.5055020000000  0.4631440000000  0.4534590000000 1.0
C      1  0.4955110000000  0.5368570000000  0.4532710000000 1.0
C      1  0.4605610000000  0.4578050000000  0.5044360000000 1.0
C      1  0.5375220000000  0.4478890000000  0.4946820000000 1.0
C      1  0.4637000000000  0.5413990000000  0.4917450000000 1.0
C      1  0.4561450000000  0.4994440000000  0.5352010000000 1.0
C      1  0.5454980000000  0.4994470000000  0.4649370000000 1.0
C      1  0.4492740000000  0.5015790000000  0.4613860000000 1.0
C      1  0.5147660000000  0.5777390000000  0.4886990000000 1.0
C      1  0.5737180000000  0.4877580000000  0.5267520000000 1.0
C      1  0.4905650000000  0.5264220000000  0.5750880000000 1.0
C      1  0.4852610000000  0.4234830000000  0.4877480000000 1.0
C      1  0.5193490000000  0.4227710000000  0.5096210000000 1.0
C      1  0.4810940000000  0.5770390000000  0.5106540000000 1.0
C      1  0.4253300000000  0.5130690000000  0.5317340000000 1.0
C      1  0.5748340000000  0.5127230000000  0.4753700000000 1.0
C      1  0.4222880000000  0.4850110000000  0.4708770000000 1.0
C      1  0.5104130000000  0.4739970000000  0.5751820000000 1.0
C      1  0.4882630000000  0.4726160000000  0.4247400000000 1.0
C      1  0.5118330000000  0.5261430000000  0.4246360000000 1.0
C      1  0.5175060000000  0.4755310000000  0.4839640000000 1.0
C      1  0.4778380000000  0.4842750000000  0.5058020000000 1.0
C      1  0.4923620000000  0.5023830000000  0.4821160000000 1.0
C      1  0.4963210000000  0.5138510000000  0.4880960000000 1.0
C      1  0.5107020000000  0.5216360000000  0.5186950000000 1.0
C      1  0.4910310000000  0.4812210000000  0.5075630000000 1.0
C      1  0.5222710000000  0.5147710000000  0.5131430000000 1.0
C      1  0.4843590000000  0.5080320000000  0.4917630000000 1.0
C      1  0.5258190000000  0.4854480000000  0.4898780000000 1.0
C      1  0.5231950000000  0.4859620000000  0.4762400000000 1.0
C      1  0.4855040000000  0.4902850000000  0.5162870000000 1.0
C      1  0.5150950000000  0.5090460000000  0.5232950000000 1.0
C      1  0.5729200000000  0.4795310000000  0.4839670000000 1.0
C      1  0.4767430000000  0.4843060000000  0.5732880000000 1.0
C      1  0.4821750000000  0.5746850000000  0.4738460000000 1.0
C      1  0.4260300000000  0.5209370000000  0.4790640000000 1.0
C      1  0.5729460000000  0.5210330000000  0.5192790000000 1.0
C      1  0.4321340000000  0.4800080000000  0.5211790000000 1.0
C      1  0.5240680000000  0.5161010000000  0.5737640000000 1.0
C      1  0.4768200000000  0.5153320000000  0.4266690000000 1.0
C      1  0.5242030000000  0.4839430000000  0.4270420000000 1.0
C      1  0.5191700000000  0.4261290000000  0.4740070000000 1.0
C      1  0.4772880000000  0.4286510000000  0.5227920000000 1.0
C      1  0.5224300000000  0.5737760000000  0.5246820000000 1.0
C      1  0.4739980000000  0.4264940000000  0.5517170000000 1.0
C      1  0.4259910000000  0.5492210000000  0.4765280000000 1.0
C      1  0.5527400000000  0.4801870000000  0.4266630000000 1.0
C      1  0.5261110000000  0.5745860000000  0.5535130000000 1.0
C      1  0.4761480000000  0.5725600000000  0.4466040000000 1.0
C      1  0.5249400000000  0.4274650000000  0.4470730000000 1.0
C      1  0.5745800000000  0.4512960000000  0.4775000000000 1.0
C      1  0.4234640000000  0.4531900000000  0.5233880000000 1.0
C      1  0.5759330000000  0.5478870000000  0.5246370000000 1.0
C      1  0.4486150000000  0.5196760000000  0.4248170000000 1.0
C      1  0.5519470000000  0.5201120000000  0.5767500000000 1.0
C      1  0.4499480000000  0.4803170000000  0.5762550000000 1.0
C      1  0.4723560000000  0.4486740000000  0.5592170000000 1.0
C      1  0.4469580000000  0.5615960000000  0.4745290000000 1.0
C      1  0.5638630000000  0.4760630000000  0.4479440000000 1.0
C      1  0.5279970000000  0.5521770000000  0.5605990000000 1.0
C      1  0.4728840000000  0.5515930000000  0.4351260000000 1.0
C      1  0.5285510000000  0.4484300000000  0.4365390000000 1.0
C      1  0.5553000000000  0.4354210000000  0.4740630000000 1.0
C      1  0.4436470000000  0.4410810000000  0.5283900000000 1.0
C      1  0.5561970000000  0.5602770000000  0.5293450000000 1.0
C      1  0.4336790000000  0.5243820000000  0.4434240000000 1.0
C      1  0.5588590000000  0.5231810000000  0.5547410000000 1.0
C      1  0.4366290000000  0.4768030000000  0.5566550000000 1.0
C      1  0.5578960000000  0.4881340000000  0.5634160000000 1.0
C      1  0.4940440000000  0.5623620000000  0.5579890000000 1.0
C      1  0.5627580000000  0.5515190000000  0.4935340000000 1.0
C      1  0.4427970000000  0.5127330000000  0.5658910000000 1.0
C      1  0.5588570000000  0.5116110000000  0.4396800000000 1.0
C      1  0.4404760000000  0.4876790000000  0.4358090000000 1.0
C      1  0.5062870000000  0.4384460000000  0.5572040000000 1.0
C      1  0.4921680000000  0.4360070000000  0.4392870000000 1.0
C      1  0.5083920000000  0.5624010000000  0.4407250000000 1.0
C      1  0.4356100000000  0.4437970000000  0.4925320000000 1.0
C      1  0.5686240000000  0.4418630000000  0.5084930000000 1.0
C      1  0.4367320000000  0.5511800000000  0.5087560000000 1.0
C      1  0.4489340000000  0.5069890000000  0.5038140000000 1.0
C      1  0.5059680000000  0.5041240000000  0.4536740000000 1.0
C      1  0.5070010000000  0.4553340000000  0.5015900000000 1.0
C      1  0.5449590000000  0.4961510000000  0.5054910000000 1.0
C      1  0.4472070000000  0.4955270000000  0.4958420000000 1.0
C      1  0.5448060000000  0.5069770000000  0.4959350000000 1.0
C      1  0.4956390000000  0.4937660000000  0.4539870000000 1.0
C      1  0.5047070000000  0.4949760000000  0.5453500000000 1.0
C      1  0.4944940000000  0.5057070000000  0.5448200000000 1.0
C      1  0.4932620000000  0.5430640000000  0.5034560000000 1.0
C      1  0.5049230000000  0.5433650000000  0.4958390000000 1.0
C      1  0.4987600000000  0.4550970000000  0.4906620000000 1.0
C      1  0.5399610000000  0.5129590000000  0.4626290000000 1.0
C      1  0.5079950000000  0.4631940000000  0.5387450000000 1.0
C      1  0.4614370000000  0.5398270000000  0.5066580000000 1.0
C      1  0.4569820000000  0.4891740000000  0.4624260000000 1.0
C      1  0.5375660000000  0.4889340000000  0.5366730000000 1.0
C      1  0.4616730000000  0.5134940000000  0.5348900000000 1.0
C      1  0.4928350000000  0.5373720000000  0.5391410000000 1.0
C      1  0.5084080000000  0.5373290000000  0.4600130000000 1.0
C      1  0.4912850000000  0.4613140000000  0.4558640000000 1.0
C      1  0.5391360000000  0.4550260000000  0.5068270000000 1.0
C      1  0.4596530000000  0.4598590000000  0.4897150000000 1.0
C      1  0.5390260000000  0.5446860000000  0.4920040000000 1.0
C      1  0.5101410000000  0.5122900000000  0.4431360000000 1.0
C      1  0.5113060000000  0.4435160000000  0.5069180000000 1.0
C      1  0.4385040000000  0.5133120000000  0.5112060000000 1.0
C      1  0.4895920000000  0.4877850000000  0.4424410000000 1.0
C      1  0.5088990000000  0.4873590000000  0.5562700000000 1.0
C      1  0.4908290000000  0.5132870000000  0.5559910000000 1.0
C      1  0.4880480000000  0.5555230000000  0.5070400000000 1.0
C      1  0.5092950000000  0.5558130000000  0.4911290000000 1.0
C      1  0.4959320000000  0.4433710000000  0.4832400000000 1.0
C      1  0.5559020000000  0.4895160000000  0.5113990000000 1.0
C      1  0.4355490000000  0.4893530000000  0.4903890000000 1.0
C      1  0.5568600000000  0.5149730000000  0.4924250000000 1.0
C      1  0.5626160000000  0.4846490000000  0.4366280000000 1.0
C      1  0.4794940000000  0.4358720000000  0.5617820000000 1.0
C      1  0.4355860000000  0.5590470000000  0.4826310000000 1.0
C      1  0.4371450000000  0.5153210000000  0.4327330000000 1.0
C      1  0.5618270000000  0.5149940000000  0.5669380000000 1.0
C      1  0.4390930000000  0.4852940000000  0.5678780000000 1.0
C      1  0.5205660000000  0.5648890000000  0.5632470000000 1.0
C      1  0.4810690000000  0.5630730000000  0.4366020000000 1.0
C      1  0.5199770000000  0.4371770000000  0.4372010000000 1.0
C      1  0.5664680000000  0.4397480000000  0.4817040000000 1.0
C      1  0.4327230000000  0.4422840000000  0.5195640000000 1.0
C      1  0.5665910000000  0.5584860000000  0.5200920000000 1.0
C      1  0.4952750000000  0.4455180000000  0.5311440000000 1.0
C      1  0.4419450000000  0.5319590000000  0.4953610000000 1.0
C      1  0.5334800000000  0.5003550000000  0.4440480000000 1.0
C      1  0.5050490000000  0.5554450000000  0.5319500000000 1.0
C      1  0.4966490000000  0.5564250000000  0.4659500000000 1.0
C      1  0.5020090000000  0.4434060000000  0.4679550000000 1.0
C      1  0.5562970000000  0.4682230000000  0.4951580000000 1.0
C      1  0.4389850000000  0.4660960000000  0.4984880000000 1.0
C      1  0.5573020000000  0.5290500000000  0.5018430000000 1.0
C      1  0.4651550000000  0.5006870000000  0.4438600000000 1.0
C      1  0.5331240000000  0.5001450000000  0.5568330000000 1.0
C      1  0.4666410000000  0.5020090000000  0.5566880000000 1.0
C      1  0.4830900000000  0.5786500000000  0.5247160000000 1.0
C      1  0.5788690000000  0.5260870000000  0.4772970000000 1.0
C      1  0.5243890000000  0.4759450000000  0.5778710000000 1.0
C      1  0.5170890000000  0.4216280000000  0.5239780000000 1.0
C      1  0.4833100000000  0.4209560000000  0.4732410000000 1.0
C      1  0.5168210000000  0.5794690000000  0.4742430000000 1.0
C      1  0.4194290000000  0.4710860000000  0.4734130000000 1.0
C      1  0.5768040000000  0.4744070000000  0.5235810000000 1.0
C      1  0.4216980000000  0.5264460000000  0.5306300000000 1.0
C      1  0.4767810000000  0.5246680000000  0.5782650000000 1.0
C      1  0.5259080000000  0.5238300000000  0.4224150000000 1.0
C      1  0.4741600000000  0.4756200000000  0.4220180000000 1.0
C      1  0.5308590000000  0.4637280000000  0.5742930000000 1.0
C      1  0.4706380000000  0.5765040000000  0.5319740000000 1.0
C      1  0.5751530000000  0.5345180000000  0.4660440000000 1.0
C      1  0.4703190000000  0.5369730000000  0.5750080000000 1.0
C      1  0.5329040000000  0.5360170000000  0.4261970000000 1.0
C      1  0.4672420000000  0.4634740000000  0.4246900000000 1.0
C      1  0.5294580000000  0.4237260000000  0.5315430000000 1.0
C      1  0.4704200000000  0.4233820000000  0.4675210000000 1.0
C      1  0.5299580000000  0.5768930000000  0.4687470000000 1.0
C      1  0.4245100000000  0.4633340000000  0.4627310000000 1.0
C      1  0.5730700000000  0.4664200000000  0.5347820000000 1.0
C      1  0.4253170000000  0.5359000000000  0.5402550000000 1.0
C      1  0.4268270000000  0.4904820000000  0.4583830000000 1.0
C      1  0.4913820000000  0.4592390000000  0.4260890000000 1.0
C      1  0.4730640000000  0.4282960000000  0.4949310000000 1.0
C      1  0.5697160000000  0.5074710000000  0.4631890000000 1.0
C      1  0.4316340000000  0.5077900000000  0.5430360000000 1.0
C      1  0.5682530000000  0.4930000000000  0.5390060000000 1.0
C      1  0.5055690000000  0.5381100000000  0.4294780000000 1.0
C      1  0.4970130000000  0.5383330000000  0.5699090000000 1.0
C      1  0.5039600000000  0.4621550000000  0.5696290000000 1.0
C      1  0.5272420000000  0.5744290000000  0.4963200000000 1.0
C      1  0.4670110000000  0.5747120000000  0.5054620000000 1.0
C      1  0.5331530000000  0.4251470000000  0.5051020000000 1.0
C      1  0.5478010000000  0.4935160000000  0.4255370000000 1.0
C      1  0.4871340000000  0.4262560000000  0.5459320000000 1.0
C      1  0.4238380000000  0.5432810000000  0.4893070000000 1.0
C      1  0.4531130000000  0.5062130000000  0.4237150000000 1.0
C      1  0.5466870000000  0.5068000000000  0.5766600000000 1.0
C      1  0.4548200000000  0.4937330000000  0.5771020000000 1.0
C      1  0.5130390000000  0.5748190000000  0.5474590000000 1.0
C      1  0.4894130000000  0.5751500000000  0.4504620000000 1.0
C      1  0.5114910000000  0.4253660000000  0.4511110000000 1.0
C      1  0.5767030000000  0.4557690000000  0.4906850000000 1.0
C      1  0.4202250000000  0.4547000000000  0.5091490000000 1.0
C      1  0.5764610000000  0.5432040000000  0.5111980000000 1.0
C      1  0.5030790000000  0.4781780000000  0.4871820000000 1.0
C      1  0.4701270000000  0.4912440000000  0.4969460000000 1.0
C      1  0.5000220000000  0.4907970000000  0.4780110000000 1.0
C      1  0.5072420000000  0.5186670000000  0.4961520000000 1.0
C      1  0.5001940000000  0.5217320000000  0.5094780000000 1.0
C      1  0.5031840000000  0.4787100000000  0.5019870000000 1.0
C      1  0.5205910000000  0.5094280000000  0.4993290000000 1.0
C      1  0.4721460000000  0.5059440000000  0.4975570000000 1.0
C      1  0.5218330000000  0.4945070000000  0.5001770000000 1.0
C      1  0.5133030000000  0.4955440000000  0.4735810000000 1.0
C      1  0.4919410000000  0.5005950000000  0.5217560000000 1.0
C      1  0.5062790000000  0.4984080000000  0.5221230000000 1.0
C      1  0.5494760000000  0.4663250000000  0.4830390000000 1.0
C      1  0.4641020000000  0.4819090000000  0.5521380000000 1.0
C      1  0.4767870000000  0.5448340000000  0.4704480000000 1.0
C      1  0.4503050000000  0.5293030000000  0.4743740000000 1.0
C      1  0.5529910000000  0.5352640000000  0.5227640000000 1.0
C      1  0.4459950000000  0.4734000000000  0.5205270000000 1.0
C      1  0.5422970000000  0.5203880000000  0.5540780000000 1.0
C      1  0.4616380000000  0.5215460000000  0.4529100000000 1.0
C      1  0.5374750000000  0.4804620000000  0.4499300000000 1.0
C      1  0.5234260000000  0.4491630000000  0.4659400000000 1.0
C      1  0.4754020000000  0.4493650000000  0.5425430000000 1.0
C      1  0.5247500000000  0.5520070000000  0.5441200000000 1.0
C      1  0.4549260000000  0.4653660000000  0.4612620000000 1.0
C      1  0.4673630000000  0.4605590000000  0.4545270000000 1.0
C      1  0.4626150000000  0.4542510000000  0.4672720000000 1.0
C      1  0.5444980000000  0.5356920000000  0.4633410000000 1.0
C      1  0.4555090000000  0.5353760000000  0.5367020000000 1.0
C      1  0.5437670000000  0.4654720000000  0.5365690000000 1.0
C      1  0.5322000000000  0.5396800000000  0.4566640000000 1.0
C      1  0.4688530000000  0.5398730000000  0.5427350000000 1.0
C      1  0.5312310000000  0.4610880000000  0.5426620000000 1.0
C      1  0.5371680000000  0.5472050000000  0.4687190000000 1.0
C      1  0.4624140000000  0.5465760000000  0.5310220000000 1.0
C      1  0.5370910000000  0.4539400000000  0.5306620000000 1.0
C      1  0.5453280000000  0.5328290000000  0.4322500000000 1.0
C      1  0.5267560000000  0.4297240000000  0.5441100000000 1.0
C      1  0.4304940000000  0.5485120000000  0.5337210000000 1.0
C      1  0.4543000000000  0.4666570000000  0.4297190000000 1.0
C      1  0.5440360000000  0.4668110000000  0.5695620000000 1.0
C      1  0.4570010000000  0.5339950000000  0.5708650000000 1.0
C      1  0.4734140000000  0.5707610000000  0.5445990000000 1.0
C      1  0.5285430000000  0.5713390000000  0.4555560000000 1.0
C      1  0.4718630000000  0.4281530000000  0.4540510000000 1.0
C      1  0.5683870000000  0.4536060000000  0.5302420000000 1.0
C      1  0.4300190000000  0.4507630000000  0.4677780000000 1.0
C      1  0.5706150000000  0.5474470000000  0.4706850000000 1.0
C      1  0.5523090000000  0.5381380000000  0.4900970000000 1.0
C      1  0.5327080000000  0.4874530000000  0.5507770000000 1.0
C      1  0.4926360000000  0.5485440000000  0.5300420000000 1.0
C      1  0.4453280000000  0.4543440000000  0.4910230000000 1.0
C      1  0.5485340000000  0.4660080000000  0.5067680000000 1.0
C      1  0.4458510000000  0.5385410000000  0.5080790000000 1.0
C      1  0.4666670000000  0.5145650000000  0.5502110000000 1.0
C      1  0.5356740000000  0.5143860000000  0.4474500000000 1.0
C      1  0.4666620000000  0.4892480000000  0.4514690000000 1.0
C      1  0.5078310000000  0.4518390000000  0.5296560000000 1.0
C      1  0.4890800000000  0.4496020000000  0.4637790000000 1.0
C      1  0.5086890000000  0.5492860000000  0.4681510000000 1.0
C      1  0.4386380000000  0.4625350000000  0.5575280000000 1.0
C      1  0.4591040000000  0.5522880000000  0.4396290000000 1.0
C      1  0.5561100000000  0.4416890000000  0.4604510000000 1.0
C      1  0.5603550000000  0.5377670000000  0.5571540000000 1.0
C      1  0.4394910000000  0.5381760000000  0.4439470000000 1.0
C      1  0.5608720000000  0.4620470000000  0.4459550000000 1.0
C      1  0.5426280000000  0.4469710000000  0.4402160000000 1.0
C      1  0.4576250000000  0.4473910000000  0.5602550000000 1.0
C      1  0.5427870000000  0.5536830000000  0.5617070000000 1.0
C      1  0.4456830000000  0.5570870000000  0.4601940000000 1.0
C      1  0.5582300000000  0.5577150000000  0.5433800000000 1.0
C      1  0.4417750000000  0.4433080000000  0.5424640000000 1.0
C      1  0.4771410000000  0.4811910000000  0.4466560000000 1.0
C      1  0.4822310000000  0.4480860000000  0.4761010000000 1.0
C      1  0.4409380000000  0.4760360000000  0.4886110000000 1.0
C      1  0.5219060000000  0.5206060000000  0.4466120000000 1.0
C      1  0.4790020000000  0.5212440000000  0.5528070000000 1.0
C      1  0.5207660000000  0.4797210000000  0.5528160000000 1.0
C      1  0.5169370000000  0.5533430000000  0.4792500000000 1.0
C      1  0.4826240000000  0.5523080000000  0.5197880000000 1.0
C      1  0.5170730000000  0.4469590000000  0.5195480000000 1.0
C      1  0.5542960000000  0.5257100000000  0.4816480000000 1.0
C      1  0.4413960000000  0.5266060000000  0.5172140000000 1.0
C      1  0.5518290000000  0.4763250000000  0.5164700000000 1.0
C      1  0.4728320000000  0.5302130000000  0.4493980000000 1.0
C      1  0.5334280000000  0.4558540000000  0.4710540000000 1.0
C      1  0.4504230000000  0.4732850000000  0.5338380000000 1.0
C      1  0.5310240000000  0.4694260000000  0.4516510000000 1.0
C      1  0.4687440000000  0.4701020000000  0.5497510000000 1.0
C      1  0.5334190000000  0.5306650000000  0.5514330000000 1.0
C      1  0.4699010000000  0.5501710000000  0.4821760000000 1.0
C      1  0.5348170000000  0.5482560000000  0.5354850000000 1.0
C      1  0.4651960000000  0.4534550000000  0.5341220000000 1.0
C      1  0.5498720000000  0.5291900000000  0.5338830000000 1.0
C      1  0.4587930000000  0.5289540000000  0.4646880000000 1.0
C      1  0.5490320000000  0.4728720000000  0.4700400000000 1.0
C      1  0.4564080000000  0.4680700000000  0.5741300000000 1.0
C      1  0.4658070000000  0.5697060000000  0.4554950000000 1.0
C      1  0.5723130000000  0.4596910000000  0.4669290000000 1.0
C      1  0.5447900000000  0.5320790000000  0.5749260000000 1.0
C      1  0.4562780000000  0.5310290000000  0.4272640000000 1.0
C      1  0.5454150000000  0.4684170000000  0.4277030000000 1.0
C      1  0.5361700000000  0.4286500000000  0.4551540000000 1.0
C      1  0.4623900000000  0.4294480000000  0.5445270000000 1.0
C      1  0.5378430000000  0.5721150000000  0.5464630000000 1.0
C      1  0.4274790000000  0.5416630000000  0.4648560000000 1.0
C      1  0.5740920000000  0.5403080000000  0.5363520000000 1.0
C      1  0.4257290000000  0.4606140000000  0.5354930000000 1.0
C      1  0.5243190000000  0.5330870000000  0.4856350000000 1.0
C      1  0.5294780000000  0.4798170000000  0.5187330000000 1.0
C      1  0.4776260000000  0.5191760000000  0.5304980000000 1.0
C      1  0.4814960000000  0.4682810000000  0.4793270000000 1.0
C      1  0.5231060000000  0.4679640000000  0.5138240000000 1.0
C      1  0.4772910000000  0.5281160000000  0.5176160000000 1.0
C      1  0.4637000000000  0.5248940000000  0.5122750000000 1.0
C      1  0.5305860000000  0.5213640000000  0.4803550000000 1.0
C      1  0.4547730000000  0.4751090000000  0.4844250000000 1.0
C      1  0.5229050000000  0.4837170000000  0.5318400000000 1.0
C      1  0.4843020000000  0.4752820000000  0.4671340000000 1.0
C      1  0.5241600000000  0.5166300000000  0.4668780000000 1.0
C      1  0.5329110000000  0.5023050000000  0.5723150000000 1.0
C      1  0.5083460000000  0.5714440000000  0.5329740000000 1.0
C      1  0.5728890000000  0.5303410000000  0.5052010000000 1.0
C      1  0.4679670000000  0.4986460000000  0.5719120000000 1.0
C      1  0.5333860000000  0.4975620000000  0.4287880000000 1.0
C      1  0.4668580000000  0.5017660000000  0.4283910000000 1.0
C      1  0.4918790000000  0.4298630000000  0.5315510000000 1.0
C      1  0.5070290000000  0.4276000000000  0.4646680000000 1.0
C      1  0.4937260000000  0.5722710000000  0.4643080000000 1.0
C      1  0.4230710000000  0.4648040000000  0.4992690000000 1.0
C      1  0.5720690000000  0.4689740000000  0.4963790000000 1.0
C      1  0.4283700000000  0.5295340000000  0.4906520000000 1.0
C      1  0.4411660000000  0.5011050000000  0.4308540000000 1.0
C      1  0.5059670000000  0.4330610000000  0.4400320000000 1.0
C      1  0.4294650000000  0.4434030000000  0.5055030000000 1.0
C      1  0.5589610000000  0.4986940000000  0.4340110000000 1.0
C      1  0.4429750000000  0.4992960000000  0.5705120000000 1.0
C      1  0.5579560000000  0.5011970000000  0.5690050000000 1.0
C      1  0.4949950000000  0.5667280000000  0.4399950000000 1.0
C      1  0.5071350000000  0.5674180000000  0.5585110000000 1.0
C      1  0.4930320000000  0.4335310000000  0.5572300000000 1.0
C      1  0.5679600000000  0.5541490000000  0.5062380000000 1.0
C      1  0.4316450000000  0.5545350000000  0.4959820000000 1.0
C      1  0.5705340000000  0.4431060000000  0.4953630000000 1.0
C      1  0.4966460000000  0.4829500000000  0.4310440000000 1.0
C      1  0.4972490000000  0.4305310000000  0.4911520000000 1.0
C      1  0.4259020000000  0.4944790000000  0.4816940000000 1.0
C      1  0.5039340000000  0.5147950000000  0.4303600000000 1.0
C      1  0.4975610000000  0.5151440000000  0.5685950000000 1.0
C      1  0.5030570000000  0.4853310000000  0.5692160000000 1.0
C      1  0.5042980000000  0.5688250000000  0.4943510000000 1.0
C      1  0.4902640000000  0.5694640000000  0.4999080000000 1.0
C      1  0.5103490000000  0.4306650000000  0.4989690000000 1.0
C      1  0.5685770000000  0.5062220000000  0.4869050000000 1.0
C      1  0.4297650000000  0.5062690000000  0.5196840000000 1.0
C      1  0.5679930000000  0.4954470000000  0.5157960000000 1.0
C      1  0.4542070000000  0.5200260000000  0.5722710000000 1.0
C      1  0.5148370000000  0.5707710000000  0.4516990000000 1.0
C      1  0.5713890000000  0.4528080000000  0.5163810000000 1.0
C      1  0.5468550000000  0.4807220000000  0.5706510000000 1.0
C      1  0.4519810000000  0.4807300000000  0.4292350000000 1.0
C      1  0.5456500000000  0.5185010000000  0.4352070000000 1.0
C      1  0.4857060000000  0.4281750000000  0.4503970000000 1.0
C      1  0.5128270000000  0.4306340000000  0.5462470000000 1.0
C      1  0.4873340000000  0.5701130000000  0.5469890000000 1.0
C      1  0.4289180000000  0.5467330000000  0.5199230000000 1.0
C      1  0.5731060000000  0.5470300000000  0.4846250000000 1.0
C      1  0.4274740000000  0.4501560000000  0.4816350000000 1.0
C      1  0.5486510000000  0.5424840000000  0.4417820000000 1.0
C      1  0.5366990000000  0.4390680000000  0.5473350000000 1.0
C      1  0.4419940000000  0.5524780000000  0.5404970000000 1.0
C      1  0.4512960000000  0.4571300000000  0.4395920000000 1.0
C      1  0.5468420000000  0.4582830000000  0.5588680000000 1.0
C      1  0.4541450000000  0.5423780000000  0.5600020000000 1.0
C      1  0.4635340000000  0.5616040000000  0.5480100000000 1.0
C      1  0.5384990000000  0.5618640000000  0.4530570000000 1.0
C      1  0.4621650000000  0.4379380000000  0.4514940000000 1.0
C      1  0.5580540000000  0.4488180000000  0.5385260000000 1.0
C      1  0.4414320000000  0.4474110000000  0.4604980000000 1.0
C      1  0.5595090000000  0.5520190000000  0.4630920000000 1.0
C      1  0.5355920000000  0.5584800000000  0.5129500000000 1.0
C      1  0.5597390000000  0.5057250000000  0.5345410000000 1.0
C      1  0.5095470000000  0.5332730000000  0.5617070000000 1.0
C      1  0.4641880000000  0.4453650000000  0.5113010000000 1.0
C      1  0.5340710000000  0.4329820000000  0.4918300000000 1.0
C      1  0.4677450000000  0.5714790000000  0.4917160000000 1.0
C      1  0.4401190000000  0.4955390000000  0.5373860000000 1.0
C      1  0.5606410000000  0.4952790000000  0.4674850000000 1.0
C      1  0.4332070000000  0.5047840000000  0.4617540000000 1.0
C      1  0.4915140000000  0.4670700000000  0.5612680000000 1.0
C      1  0.5121980000000  0.4689810000000  0.4419940000000 1.0
C      1  0.4927250000000  0.5336000000000  0.4376380000000 1.0
C      1  0.5272190000000  0.5472490000000  0.4328600000000 1.0
C      1  0.5419920000000  0.4289470000000  0.5269140000000 1.0
C      1  0.4340740000000  0.5309440000000  0.5499510000000 1.0
C      1  0.4726710000000  0.4520040000000  0.4313970000000 1.0
C      1  0.5252520000000  0.4530590000000  0.5667290000000 1.0
C      1  0.4756990000000  0.5474360000000  0.5670810000000 1.0
C      1  0.4582300000000  0.5711900000000  0.5272450000000 1.0
C      1  0.5410550000000  0.5708470000000  0.4755050000000 1.0
C      1  0.4596090000000  0.4301670000000  0.4740580000000 1.0
C      1  0.5660580000000  0.4707510000000  0.5461670000000 1.0
C      1  0.4315760000000  0.4683960000000  0.4517360000000 1.0
C      1  0.5675120000000  0.5300000000000  0.4552760000000 1.0
C      1  0.4367050000000  0.5466010000000  0.4552450000000 1.0
C      1  0.5506350000000  0.4581620000000  0.4365990000000 1.0
C      1  0.4526530000000  0.4386030000000  0.5501900000000 1.0
C      1  0.5638050000000  0.4537440000000  0.4571330000000 1.0
C      1  0.4338000000000  0.4545660000000  0.5465400000000 1.0
C      1  0.5657870000000  0.5458540000000  0.5469270000000 1.0
C      1  0.4509160000000  0.5414270000000  0.4358150000000 1.0
C      1  0.5502660000000  0.5425330000000  0.5662620000000 1.0
C      1  0.4501380000000  0.4581850000000  0.5653540000000 1.0
C      1  0.5477380000000  0.5626110000000  0.5516200000000 1.0
C      1  0.4558870000000  0.5604800000000  0.4511270000000 1.0
C      1  0.5462510000000  0.4380380000000  0.4510590000000 1.0
C      1  0.4635810000000  0.4934300000000  0.5460090000000 1.0
C      1  0.4875490000000  0.5467180000000  0.4615770000000 1.0
C      1  0.5398300000000  0.4560460000000  0.4834850000000 1.0
C      1  0.5383140000000  0.5089490000000  0.5474730000000 1.0
C      1  0.4576970000000  0.5089500000000  0.4522270000000 1.0
C      1  0.5378540000000  0.4925650000000  0.4548470000000 1.0
C      1  0.5113220000000  0.4534290000000  0.4627250000000 1.0
C      1  0.4878590000000  0.4540910000000  0.5394320000000 1.0
C      1  0.5125590000000  0.5470200000000  0.5404000000000 1.0
C      1  0.4521610000000  0.5348020000000  0.4862430000000 1.0
C      1  0.5474570000000  0.5358350000000  0.5109410000000 1.0
C      1  0.4495160000000  0.4664430000000  0.5093790000000 1.0
C      1  0.4700330000000  0.5370180000000  0.4617980000000 1.0
C      1  0.5383190000000  0.4662340000000  0.4630840000000 1.0
C      1  0.4608440000000  0.4655090000000  0.5389340000000 1.0
C      1  0.5395390000000  0.5362670000000  0.5402310000000 1.0
END
