TITL C-526663-2196-70 16.4899084381821 1000000 -1654.2633513124 0 0 240 (C1) n - 1
REM
REM in /scratch/bkarasulu/Only-C240
REM
REM
REM
REM
REM
REM ./C.cell (db1db5b03a21c153a00b653f6831bbfd)
REM
REM compiler GCC version 9.2.1 20190827 (Red Hat 9.2.1-1)
REM options -cpp -mtune=generic -march=x86-64 -g -O0 -fpre-include=/usr/include/finclude/math-vector-fortran.h
REM seed 365395399 -140970703 1779131453 -1828784936 -1911747295 650953001 1975353392 -599585791 850455419 -408675391 -1136496617 -351508550 -1399828042 -958639112 -2137927961 -1803705428 1328369306 -840888719 -1946814631 -1407407950 2093271341 1796659461 -2017445080 2093776948 -831900767 710085006 -1247413524 -2313065 415394089 1587721380 2052064099 -1769888687 -2072292803
REM
CELL 1.54180  100.00000  100.00000  100.00000   90.00000   90.00000   90.00000
LATT -1
SFAC C  
C      1  0.4804590000000  0.4944990000000  0.5686960000000 1.0
C      1  0.5139690000000  0.5069620000000  0.5691450000000 1.0
C      1  0.5146300000000  0.4934070000000  0.4310830000000 1.0
C      1  0.4818570000000  0.5074970000000  0.4296490000000 1.0
C      1  0.5527380000000  0.5044920000000  0.4454860000000 1.0
C      1  0.4446520000000  0.4937690000000  0.4448810000000 1.0
C      1  0.4441900000000  0.5110140000000  0.5543840000000 1.0
C      1  0.5518980000000  0.4948020000000  0.5554470000000 1.0
C      1  0.5075280000000  0.5160050000000  0.4301500000000 1.0
C      1  0.4896410000000  0.4848800000000  0.4276710000000 1.0
C      1  0.4891430000000  0.5164870000000  0.5725180000000 1.0
C      1  0.5057560000000  0.4845930000000  0.5694300000000 1.0
C      1  0.5190720000000  0.4377900000000  0.4669090000000 1.0
C      1  0.4822000000000  0.5675010000000  0.4668090000000 1.0
C      1  0.4839620000000  0.4378190000000  0.5308260000000 1.0
C      1  0.5196220000000  0.5631530000000  0.5320260000000 1.0
C      1  0.4905930000000  0.4428670000000  0.4830580000000 1.0
C      1  0.5144840000000  0.5556870000000  0.4843440000000 1.0
C      1  0.5121870000000  0.4443130000000  0.5142000000000 1.0
C      1  0.4915120000000  0.5588480000000  0.5140760000000 1.0
C      1  0.5448360000000  0.5543550000000  0.5465980000000 1.0
C      1  0.4559670000000  0.4417030000000  0.5444230000000 1.0
C      1  0.4526670000000  0.5554460000000  0.4594930000000 1.0
C      1  0.5436920000000  0.4479820000000  0.4534050000000 1.0
C      1  0.4906550000000  0.5301970000000  0.5730120000000 1.0
C      1  0.5040060000000  0.4711700000000  0.5679140000000 1.0
C      1  0.5064240000000  0.5295030000000  0.4324490000000 1.0
C      1  0.4914100000000  0.4711470000000  0.4279990000000 1.0
C      1  0.4700450000000  0.4476680000000  0.5003450000000 1.0
C      1  0.5346810000000  0.5503920000000  0.5022400000000 1.0
C      1  0.5329260000000  0.4505960000000  0.4974450000000 1.0
C      1  0.4728010000000  0.5562840000000  0.4954470000000 1.0
C      1  0.4508970000000  0.5498130000000  0.5259400000000 1.0
C      1  0.5554170000000  0.4545080000000  0.5259180000000 1.0
C      1  0.5578590000000  0.5433850000000  0.4749140000000 1.0
C      1  0.4469560000000  0.4518500000000  0.4722300000000 1.0
C      1  0.4551690000000  0.4957930000000  0.5271200000000 1.0
C      1  0.5562750000000  0.4975300000000  0.5254750000000 1.0
C      1  0.5572990000000  0.5022440000000  0.4768770000000 1.0
C      1  0.4436930000000  0.4971240000000  0.4766040000000 1.0
C      1  0.5403750000000  0.4998740000000  0.5623600000000 1.0
C      1  0.4544110000000  0.5046960000000  0.5625840000000 1.0
C      1  0.4549930000000  0.4991680000000  0.4364080000000 1.0
C      1  0.5411300000000  0.4997300000000  0.4388730000000 1.0
C      1  0.4638660000000  0.4789460000000  0.4992010000000 1.0
C      1  0.5404230000000  0.5181250000000  0.5024010000000 1.0
C      1  0.5401260000000  0.4821400000000  0.4999500000000 1.0
C      1  0.4603120000000  0.5149040000000  0.4982230000000 1.0
C      1  0.4535090000000  0.4463000000000  0.5321250000000 1.0
C      1  0.5489310000000  0.5503190000000  0.5346120000000 1.0
C      1  0.5474900000000  0.4515090000000  0.4655200000000 1.0
C      1  0.4466970000000  0.5485200000000  0.4686660000000 1.0
C      1  0.5058580000000  0.4862040000000  0.4846180000000 1.0
C      1  0.4902890000000  0.5159930000000  0.4844560000000 1.0
C      1  0.4882690000000  0.4796850000000  0.5185160000000 1.0
C      1  0.5097310000000  0.5182570000000  0.5173110000000 1.0
C      1  0.4709950000000  0.4787560000000  0.5377760000000 1.0
C      1  0.5216190000000  0.5253730000000  0.5395730000000 1.0
C      1  0.5174090000000  0.4831860000000  0.4612360000000 1.0
C      1  0.4727810000000  0.5220360000000  0.4669530000000 1.0
C      1  0.5511040000000  0.5187670000000  0.4478240000000 1.0
C      1  0.4481430000000  0.4799250000000  0.4479070000000 1.0
C      1  0.4482480000000  0.5247190000000  0.5520370000000 1.0
C      1  0.5493470000000  0.4810060000000  0.5517940000000 1.0
C      1  0.5434370000000  0.5205720000000  0.5496740000000 1.0
C      1  0.4506990000000  0.4858590000000  0.5486490000000 1.0
C      1  0.4539920000000  0.5197350000000  0.4496810000000 1.0
C      1  0.5436780000000  0.4778970000000  0.4509530000000 1.0
C      1  0.5045620000000  0.4275730000000  0.5633670000000 1.0
C      1  0.4996730000000  0.5747050000000  0.5626550000000 1.0
C      1  0.4997190000000  0.4263140000000  0.4348970000000 1.0
C      1  0.5078980000000  0.5669170000000  0.4336300000000 1.0
C      1  0.5596740000000  0.5041760000000  0.5475330000000 1.0
C      1  0.4394610000000  0.5015510000000  0.5441470000000 1.0
C      1  0.4383420000000  0.5029240000000  0.4542110000000 1.0
C      1  0.5595930000000  0.4954030000000  0.4542680000000 1.0
C      1  0.4878480000000  0.4373220000000  0.4700560000000 1.0
C      1  0.5167030000000  0.5575480000000  0.4703120000000 1.0
C      1  0.5145410000000  0.4400860000000  0.5278460000000 1.0
C      1  0.4876890000000  0.5626910000000  0.5274610000000 1.0
C      1  0.5335190000000  0.4408590000000  0.4504820000000 1.0
C      1  0.4625670000000  0.5625770000000  0.4554390000000 1.0
C      1  0.4677820000000  0.4370260000000  0.5463210000000 1.0
C      1  0.5339350000000  0.5605020000000  0.5492960000000 1.0
C      1  0.4776030000000  0.4432580000000  0.4784490000000 1.0
C      1  0.5273090000000  0.5536260000000  0.4799710000000 1.0
C      1  0.5249260000000  0.4456180000000  0.5191980000000 1.0
C      1  0.4783150000000  0.5577510000000  0.5175230000000 1.0
C      1  0.4723010000000  0.5254060000000  0.5337480000000 1.0
C      1  0.5296310000000  0.4707150000000  0.5348150000000 1.0
C      1  0.5306520000000  0.5264630000000  0.4660220000000 1.0
C      1  0.4698560000000  0.4696580000000  0.4628610000000 1.0
C      1  0.4417330000000  0.5165180000000  0.4543640000000 1.0
C      1  0.5554970000000  0.4822140000000  0.4535130000000 1.0
C      1  0.5571560000000  0.5176530000000  0.5482400000000 1.0
C      1  0.4374140000000  0.4885930000000  0.5481220000000 1.0
C      1  0.4690870000000  0.5223840000000  0.5217910000000 1.0
C      1  0.5330930000000  0.4745770000000  0.5232940000000 1.0
C      1  0.5326880000000  0.5230350000000  0.4780560000000 1.0
C      1  0.4667690000000  0.4730880000000  0.4746190000000 1.0
C      1  0.4641660000000  0.4925040000000  0.5039960000000 1.0
C      1  0.5408660000000  0.5044210000000  0.5069430000000 1.0
C      1  0.5415490000000  0.4958400000000  0.4960310000000 1.0
C      1  0.4609450000000  0.5013210000000  0.4937510000000 1.0
C      1  0.5189250000000  0.4423850000000  0.4785370000000 1.0
C      1  0.4868350000000  0.5643310000000  0.4779710000000 1.0
C      1  0.4850270000000  0.4418120000000  0.5190360000000 1.0
C      1  0.5201180000000  0.5596590000000  0.5200380000000 1.0
C      1  0.5357840000000  0.4486940000000  0.5109950000000 1.0
C      1  0.4679210000000  0.5545460000000  0.5083340000000 1.0
C      1  0.4668790000000  0.4461270000000  0.4868820000000 1.0
C      1  0.5378800000000  0.5510350000000  0.4886210000000 1.0
C      1  0.4777310000000  0.4932430000000  0.4292690000000 1.0
C      1  0.5191010000000  0.5073290000000  0.4318400000000 1.0
C      1  0.5178490000000  0.4928220000000  0.5684870000000 1.0
C      1  0.4770830000000  0.5088410000000  0.5701320000000 1.0
C      1  0.5497870000000  0.5463120000000  0.5229230000000 1.0
C      1  0.4544820000000  0.4507170000000  0.5206920000000 1.0
C      1  0.4451500000000  0.5425450000000  0.4795940000000 1.0
C      1  0.5484320000000  0.4549700000000  0.4773970000000 1.0
C      1  0.4527370000000  0.4482460000000  0.4841200000000 1.0
C      1  0.5519880000000  0.5483800000000  0.4861410000000 1.0
C      1  0.5498440000000  0.4505680000000  0.5140540000000 1.0
C      1  0.4548500000000  0.5497400000000  0.5126920000000 1.0
C      1  0.5353840000000  0.4779510000000  0.5564450000000 1.0
C      1  0.4628270000000  0.5254990000000  0.5564430000000 1.0
C      1  0.4618760000000  0.4776940000000  0.4422010000000 1.0
C      1  0.5370010000000  0.5220780000000  0.4432740000000 1.0
C      1  0.4750020000000  0.4759320000000  0.5518700000000 1.0
C      1  0.5171120000000  0.5272480000000  0.5538710000000 1.0
C      1  0.5151050000000  0.4759500000000  0.4484500000000 1.0
C      1  0.4749630000000  0.5282000000000  0.4440920000000 1.0
C      1  0.5320110000000  0.5105530000000  0.4360470000000 1.0
C      1  0.4651570000000  0.4891860000000  0.4337530000000 1.0
C      1  0.4650250000000  0.5139100000000  0.5653620000000 1.0
C      1  0.5306790000000  0.4892930000000  0.5643250000000 1.0
C      1  0.4420950000000  0.4705770000000  0.4558600000000 1.0
C      1  0.5583660000000  0.5269760000000  0.4556200000000 1.0
C      1  0.5565460000000  0.4724480000000  0.5439140000000 1.0
C      1  0.4432080000000  0.5345030000000  0.5442430000000 1.0
C      1  0.5602740000000  0.4776230000000  0.4924160000000 1.0
C      1  0.4375990000000  0.5149580000000  0.4927860000000 1.0
C      1  0.4447800000000  0.4751160000000  0.5107900000000 1.0
C      1  0.5609640000000  0.5226630000000  0.5093570000000 1.0
C      1  0.5218850000000  0.4837510000000  0.4381120000000 1.0
C      1  0.4725540000000  0.5168980000000  0.4350020000000 1.0
C      1  0.4710410000000  0.4861880000000  0.5617660000000 1.0
C      1  0.5223930000000  0.5166220000000  0.5628470000000 1.0
C      1  0.5201780000000  0.4463250000000  0.4918980000000 1.0
C      1  0.4856230000000  0.5596870000000  0.4912540000000 1.0
C      1  0.4832400000000  0.4450290000000  0.5055840000000 1.0
C      1  0.5218080000000  0.5551440000000  0.5070100000000 1.0
C      1  0.5724130000000  0.4758800000000  0.4960360000000 1.0
C      1  0.4276400000000  0.5174970000000  0.5004580000000 1.0
C      1  0.4322150000000  0.4737060000000  0.5094400000000 1.0
C      1  0.5732600000000  0.5236140000000  0.5061320000000 1.0
C      1  0.5080330000000  0.5358730000000  0.5584630000000 1.0
C      1  0.4848100000000  0.4671920000000  0.5551280000000 1.0
C      1  0.4853180000000  0.5369870000000  0.4439200000000 1.0
C      1  0.5068770000000  0.4661430000000  0.4446250000000 1.0
C      1  0.4481680000000  0.5369360000000  0.4912800000000 1.0
C      1  0.5455130000000  0.4569070000000  0.4909990000000 1.0
C      1  0.5468760000000  0.5439100000000  0.5093520000000 1.0
C      1  0.4575830000000  0.4537060000000  0.5073520000000 1.0
C      1  0.4585000000000  0.4849970000000  0.5362880000000 1.0
C      1  0.5352700000000  0.5247820000000  0.5395630000000 1.0
C      1  0.5287050000000  0.4903800000000  0.4591480000000 1.0
C      1  0.4663270000000  0.5254180000000  0.4555940000000 1.0
C      1  0.4802380000000  0.4340220000000  0.5431820000000 1.0
C      1  0.5221480000000  0.5646710000000  0.5452030000000 1.0
C      1  0.5222440000000  0.4350190000000  0.4541220000000 1.0
C      1  0.4742030000000  0.5681410000000  0.4561010000000 1.0
C      1  0.4646170000000  0.5140010000000  0.5121860000000 1.0
C      1  0.5387260000000  0.4828590000000  0.5144010000000 1.0
C      1  0.5395520000000  0.5167120000000  0.4877930000000 1.0
C      1  0.4617620000000  0.4803820000000  0.4847430000000 1.0
C      1  0.4947440000000  0.4938320000000  0.5705630000000 1.0
C      1  0.4998640000000  0.5070320000000  0.5717360000000 1.0
C      1  0.5006660000000  0.4939260000000  0.4278230000000 1.0
C      1  0.4962060000000  0.5072960000000  0.4283100000000 1.0
C      1  0.4330920000000  0.5388430000000  0.5095400000000 1.0
C      1  0.5696280000000  0.4529460000000  0.4994300000000 1.0
C      1  0.5713790000000  0.5463100000000  0.5012470000000 1.0
C      1  0.4333220000000  0.4526310000000  0.4989880000000 1.0
C      1  0.4428810000000  0.4601450000000  0.4634530000000 1.0
C      1  0.5596350000000  0.5358890000000  0.4647860000000 1.0
C      1  0.5574330000000  0.4625900000000  0.5356200000000 1.0
C      1  0.4451100000000  0.5437640000000  0.5354610000000 1.0
C      1  0.4952910000000  0.4829030000000  0.5078930000000 1.0
C      1  0.5036610000000  0.5155360000000  0.5060430000000 1.0
C      1  0.5011370000000  0.4856950000000  0.4970180000000 1.0
C      1  0.4979860000000  0.5154930000000  0.4946230000000 1.0
C      1  0.4998250000000  0.5377780000000  0.5682270000000 1.0
C      1  0.4942440000000  0.4641810000000  0.5631250000000 1.0
C      1  0.4962530000000  0.5356960000000  0.4371120000000 1.0
C      1  0.5001210000000  0.4637090000000  0.4337700000000 1.0
C      1  0.4463510000000  0.4496480000000  0.4967200000000 1.0
C      1  0.5583030000000  0.5484520000000  0.4989970000000 1.0
C      1  0.5564570000000  0.4512050000000  0.5013610000000 1.0
C      1  0.4454270000000  0.5432400000000  0.5042820000000 1.0
C      1  0.4353040000000  0.4989280000000  0.4673700000000 1.0
C      1  0.5644640000000  0.4998680000000  0.4667650000000 1.0
C      1  0.5644370000000  0.4996470000000  0.5348630000000 1.0
C      1  0.4437940000000  0.5029210000000  0.5308230000000 1.0
C      1  0.5083940000000  0.4447410000000  0.5007300000000 1.0
C      1  0.4967450000000  0.5585080000000  0.5010310000000 1.0
C      1  0.4947820000000  0.4440730000000  0.4963830000000 1.0
C      1  0.5103760000000  0.5566260000000  0.4976240000000 1.0
C      1  0.4567390000000  0.4696090000000  0.5070810000000 1.0
C      1  0.5484210000000  0.5280530000000  0.5085480000000 1.0
C      1  0.5475010000000  0.4723760000000  0.4928250000000 1.0
C      1  0.4502750000000  0.5223520000000  0.4918170000000 1.0
C      1  0.4265160000000  0.4622610000000  0.5041920000000 1.0
C      1  0.5791710000000  0.5359790000000  0.5032850000000 1.0
C      1  0.5776180000000  0.4631780000000  0.4981630000000 1.0
C      1  0.4259990000000  0.5282570000000  0.5087210000000 1.0
C      1  0.4630480000000  0.4996240000000  0.5158860000000 1.0
C      1  0.5450230000000  0.4962540000000  0.5180970000000 1.0
C      1  0.5467910000000  0.5036110000000  0.4851900000000 1.0
C      1  0.4549680000000  0.4939710000000  0.4832750000000 1.0
C      1  0.4918780000000  0.5668270000000  0.5391670000000 1.0
C      1  0.5100100000000  0.4350570000000  0.5390970000000 1.0
C      1  0.5129790000000  0.5600820000000  0.4579910000000 1.0
C      1  0.4923960000000  0.4320690000000  0.4589890000000 1.0
C      1  0.5098540000000  0.4848490000000  0.4727460000000 1.0
C      1  0.4819080000000  0.5188250000000  0.4749840000000 1.0
C      1  0.4804120000000  0.4767310000000  0.5279000000000 1.0
C      1  0.5137250000000  0.5219230000000  0.5287380000000 1.0
C      1  0.4592450000000  0.5124420000000  0.4379950000000 1.0
C      1  0.5343040000000  0.4878520000000  0.4442570000000 1.0
C      1  0.5358460000000  0.5129860000000  0.5603740000000 1.0
C      1  0.4580080000000  0.4911060000000  0.5598050000000 1.0
C      1  0.5105490000000  0.5625690000000  0.4456590000000 1.0
C      1  0.4955300000000  0.4279880000000  0.4472980000000 1.0
C      1  0.4953760000000  0.5711890000000  0.5506840000000 1.0
C      1  0.5073170000000  0.4307010000000  0.5508600000000 1.0
C      1  0.5284890000000  0.4696870000000  0.5476740000000 1.0
C      1  0.4715510000000  0.5286570000000  0.5462450000000 1.0
C      1  0.4702410000000  0.4697780000000  0.4499460000000 1.0
C      1  0.5302180000000  0.5289700000000  0.4531950000000 1.0
END
