TITL C-526663-2196-31 0.011159921133854 1000000 -3684.44064814386 0 0 520 (Ci) n - 1
REM
REM in /scratch/bkarasulu/Only-C240
REM
REM
REM
REM
REM
REM ./C.cell (db1db5b03a21c153a00b653f6831bbfd)
REM
REM compiler GCC version 9.2.1 20190827 (Red Hat 9.2.1-1)
REM options -cpp -mtune=generic -march=x86-64 -g -O0 -fpre-include=/usr/include/finclude/math-vector-fortran.h
REM seed 329334799 -1327395187 -1584601806 1835837250 1667665218 942721883 355495796 443242966 1895547990 -769605576 382292764 1786406729 -671595195 -1052078309 -1170780595 -504039500 -312991287 524882680 895553514 -1913266830 925832931 1422658958 -1840055790 275360271 230705781 1680882896 -1941649621 -1040097407 -1389076403 1991891966 1643335119 -1394682867 -1484018899
REM
CELL 1.54180  100.00000  100.00000  100.00000   90.00000   90.00000   90.00000
LATT -1
SFAC C  
C      1  0.5054460000000  0.4440240000000  0.4882890000000 1.0
C      1  0.4945540000000  0.5559760000000  0.5117110000000 1.0
C      1  0.4722290000000  0.4514570000000  0.5376700000000 1.0
C      1  0.5277710000000  0.5485430000000  0.4623300000000 1.0
C      1  0.4562070000000  0.5573190000000  0.5417830000000 1.0
C      1  0.5437930000000  0.4426810000000  0.4582170000000 1.0
C      1  0.4878440000000  0.5565490000000  0.5600430000000 1.0
C      1  0.5121560000000  0.4434510000000  0.4399570000000 1.0
C      1  0.5012930000000  0.4518290000000  0.4755300000000 1.0
C      1  0.4987070000000  0.5481710000000  0.5244700000000 1.0
C      1  0.5464710000000  0.5158450000000  0.4747980000000 1.0
C      1  0.4535290000000  0.4841550000000  0.5252020000000 1.0
C      1  0.5302170000000  0.5871690000000  0.5010460000000 1.0
C      1  0.4697830000000  0.4128310000000  0.4989540000000 1.0
C      1  0.5094550000000  0.4730500000000  0.4211180000000 1.0
C      1  0.4905450000000  0.5269500000000  0.5788820000000 1.0
C      1  0.5274080000000  0.4635430000000  0.4760090000000 1.0
C      1  0.4725920000000  0.5364570000000  0.5239910000000 1.0
C      1  0.4453830000000  0.5019580000000  0.5675410000000 1.0
C      1  0.5546170000000  0.4980420000000  0.4324590000000 1.0
C      1  0.4754460000000  0.5307490000000  0.4729540000000 1.0
C      1  0.5245540000000  0.4692510000000  0.5270460000000 1.0
C      1  0.4560040000000  0.4437770000000  0.4545130000000 1.0
C      1  0.5439960000000  0.5562230000000  0.5454870000000 1.0
C      1  0.5095360000000  0.4765530000000  0.4714690000000 1.0
C      1  0.4904640000000  0.5234470000000  0.5285310000000 1.0
C      1  0.4247810000000  0.4793080000000  0.4745120000000 1.0
C      1  0.5752190000000  0.5206920000000  0.5254880000000 1.0
C      1  0.5159740000000  0.4912810000000  0.5041100000000 1.0
C      1  0.4840260000000  0.5087190000000  0.4958900000000 1.0
C      1  0.4927540000000  0.4904870000000  0.4869790000000 1.0
C      1  0.5072460000000  0.5095130000000  0.5130210000000 1.0
C      1  0.4348050000000  0.5479500000000  0.5149300000000 1.0
C      1  0.5651950000000  0.4520500000000  0.4850700000000 1.0
C      1  0.4892700000000  0.5519140000000  0.4770820000000 1.0
C      1  0.5107300000000  0.4480860000000  0.5229180000000 1.0
C      1  0.5270750000000  0.5437840000000  0.5005850000000 1.0
C      1  0.4729250000000  0.4562160000000  0.4994150000000 1.0
C      1  0.4282590000000  0.4974450000000  0.4612770000000 1.0
C      1  0.5717410000000  0.5025550000000  0.5387230000000 1.0
C      1  0.5267970000000  0.4583950000000  0.4299200000000 1.0
C      1  0.4732030000000  0.5416050000000  0.5700800000000 1.0
C      1  0.5451710000000  0.5373290000000  0.5088650000000 1.0
C      1  0.4548290000000  0.4626710000000  0.4911350000000 1.0
C      1  0.5107660000000  0.4189690000000  0.5324220000000 1.0
C      1  0.4892340000000  0.5810310000000  0.4675780000000 1.0
C      1  0.5522980000000  0.4321440000000  0.4940140000000 1.0
C      1  0.4477020000000  0.5678560000000  0.5059860000000 1.0
C      1  0.4662340000000  0.4176870000000  0.4860220000000 1.0
C      1  0.5337660000000  0.5823130000000  0.5139780000000 1.0
C      1  0.4657690000000  0.5416700000000  0.4954940000000 1.0
C      1  0.5342310000000  0.4583300000000  0.5045060000000 1.0
C      1  0.5521760000000  0.5605240000000  0.4896600000000 1.0
C      1  0.4478240000000  0.4394760000000  0.5103400000000 1.0
C      1  0.4974360000000  0.5645390000000  0.4516570000000 1.0
C      1  0.5025640000000  0.4354610000000  0.5483430000000 1.0
C      1  0.5469540000000  0.4295950000000  0.4814420000000 1.0
C      1  0.4530460000000  0.5704050000000  0.5185580000000 1.0
C      1  0.4898510000000  0.4938430000000  0.5743250000000 1.0
C      1  0.5101490000000  0.5061570000000  0.4256750000000 1.0
C      1  0.4547370000000  0.4378570000000  0.4783580000000 1.0
C      1  0.5452630000000  0.5621430000000  0.5216420000000 1.0
C      1  0.4903290000000  0.5042680000000  0.4845920000000 1.0
C      1  0.5096710000000  0.4957320000000  0.5154080000000 1.0
C      1  0.4267590000000  0.4834330000000  0.4610490000000 1.0
C      1  0.5732410000000  0.5165670000000  0.5389510000000 1.0
C      1  0.4886360000000  0.4827160000000  0.5233130000000 1.0
C      1  0.5113640000000  0.5172840000000  0.4766870000000 1.0
C      1  0.4816570000000  0.4636150000000  0.4664280000000 1.0
C      1  0.5183430000000  0.5363850000000  0.5335720000000 1.0
C      1  0.4961070000000  0.4490150000000  0.5449280000000 1.0
C      1  0.5038930000000  0.5509850000000  0.4550720000000 1.0
C      1  0.5180810000000  0.4769950000000  0.5039730000000 1.0
C      1  0.4819190000000  0.5230050000000  0.4960270000000 1.0
C      1  0.5111530000000  0.5297640000000  0.4235010000000 1.0
C      1  0.4888470000000  0.4702360000000  0.5764990000000 1.0
C      1  0.5342720000000  0.4577140000000  0.5200750000000 1.0
C      1  0.4657280000000  0.5422860000000  0.4799250000000 1.0
C      1  0.4853210000000  0.5665290000000  0.4443640000000 1.0
C      1  0.5146790000000  0.4334710000000  0.5556360000000 1.0
C      1  0.4673600000000  0.5268730000000  0.4958020000000 1.0
C      1  0.5326400000000  0.4731270000000  0.5041980000000 1.0
C      1  0.4483400000000  0.5294130000000  0.5065670000000 1.0
C      1  0.5516600000000  0.4705870000000  0.4934330000000 1.0
C      1  0.5315480000000  0.5550240000000  0.5239520000000 1.0
C      1  0.4684520000000  0.4449760000000  0.4760480000000 1.0
C      1  0.4842610000000  0.4391090000000  0.5094200000000 1.0
C      1  0.5157390000000  0.5608910000000  0.4905800000000 1.0
C      1  0.4603480000000  0.4821550000000  0.5611410000000 1.0
C      1  0.5396520000000  0.5178450000000  0.4388590000000 1.0
C      1  0.4346800000000  0.4658960000000  0.5388810000000 1.0
C      1  0.5653200000000  0.5341040000000  0.4611190000000 1.0
C      1  0.5341250000000  0.4281760000000  0.4884280000000 1.0
C      1  0.4658750000000  0.5718240000000  0.5115720000000 1.0
C      1  0.4884970000000  0.4762180000000  0.5103140000000 1.0
C      1  0.5115030000000  0.5237820000000  0.4896860000000 1.0
C      1  0.5617610000000  0.4952050000000  0.4903640000000 1.0
C      1  0.4382390000000  0.5047950000000  0.5096360000000 1.0
C      1  0.4640500000000  0.4742680000000  0.5263440000000 1.0
C      1  0.5359500000000  0.5257320000000  0.4736560000000 1.0
C      1  0.5324890000000  0.4719780000000  0.4264780000000 1.0
C      1  0.4675110000000  0.5280220000000  0.5735220000000 1.0
C      1  0.4956890000000  0.4777010000000  0.4228070000000 1.0
C      1  0.5043110000000  0.5222990000000  0.5771930000000 1.0
C      1  0.4896840000000  0.4562440000000  0.4547300000000 1.0
C      1  0.5103160000000  0.5437560000000  0.5452700000000 1.0
C      1  0.5252210000000  0.5672760000000  0.5320120000000 1.0
C      1  0.4747790000000  0.4327240000000  0.4679880000000 1.0
C      1  0.4387700000000  0.4515160000000  0.5094220000000 1.0
C      1  0.5612300000000  0.5484840000000  0.4905780000000 1.0
C      1  0.4683730000000  0.5124070000000  0.4415790000000 1.0
C      1  0.5316270000000  0.4875930000000  0.5584210000000 1.0
C      1  0.4871450000000  0.5377050000000  0.5295570000000 1.0
C      1  0.5128550000000  0.4622950000000  0.4704430000000 1.0
C      1  0.5391100000000  0.4196130000000  0.5105250000000 1.0
C      1  0.4608900000000  0.5803870000000  0.4894750000000 1.0
C      1  0.4487700000000  0.5073190000000  0.5202230000000 1.0
C      1  0.5512300000000  0.4926810000000  0.4797770000000 1.0
C      1  0.4769060000000  0.4761730000000  0.5340740000000 1.0
C      1  0.5230940000000  0.5238270000000  0.4659260000000 1.0
C      1  0.5130320000000  0.4602120000000  0.4257390000000 1.0
C      1  0.4869680000000  0.5397880000000  0.5742610000000 1.0
C      1  0.4895150000000  0.5459100000000  0.5005250000000 1.0
C      1  0.5104850000000  0.4540900000000  0.4994750000000 1.0
C      1  0.5239850000000  0.5353010000000  0.4541110000000 1.0
C      1  0.4760150000000  0.4646990000000  0.5458890000000 1.0
C      1  0.4889640000000  0.4330780000000  0.4615800000000 1.0
C      1  0.5110360000000  0.5669220000000  0.5384200000000 1.0
C      1  0.5035590000000  0.5311060000000  0.5122460000000 1.0
C      1  0.4964410000000  0.4688940000000  0.4877540000000 1.0
C      1  0.4243810000000  0.4666290000000  0.5277910000000 1.0
C      1  0.5756190000000  0.5333710000000  0.4722090000000 1.0
C      1  0.4336270000000  0.5342930000000  0.5099820000000 1.0
C      1  0.5663730000000  0.4657070000000  0.4900180000000 1.0
C      1  0.5164280000000  0.5033000000000  0.4797980000000 1.0
C      1  0.4835720000000  0.4967000000000  0.5202020000000 1.0
C      1  0.5384110000000  0.5087320000000  0.4519740000000 1.0
C      1  0.4615890000000  0.4912680000000  0.5480260000000 1.0
C      1  0.5187120000000  0.5182450000000  0.4238310000000 1.0
C      1  0.4812880000000  0.4817550000000  0.5761690000000 1.0
C      1  0.5118670000000  0.5136590000000  0.5001040000000 1.0
C      1  0.4881330000000  0.4863410000000  0.4998960000000 1.0
C      1  0.4357050000000  0.5271580000000  0.5403110000000 1.0
C      1  0.5642950000000  0.4728420000000  0.4596890000000 1.0
C      1  0.5616360000000  0.4587790000000  0.5225910000000 1.0
C      1  0.4383640000000  0.5412210000000  0.4774090000000 1.0
C      1  0.5444650000000  0.5407780000000  0.5441050000000 1.0
C      1  0.4555350000000  0.4592220000000  0.4558950000000 1.0
C      1  0.5580120000000  0.5100390000000  0.5618280000000 1.0
C      1  0.4419880000000  0.4899610000000  0.4381720000000 1.0
C      1  0.4616860000000  0.4201000000000  0.5083170000000 1.0
C      1  0.5383140000000  0.5799000000000  0.4916830000000 1.0
C      1  0.4859730000000  0.4776780000000  0.4679390000000 1.0
C      1  0.5140270000000  0.5223220000000  0.5320610000000 1.0
C      1  0.4252330000000  0.4568310000000  0.5171070000000 1.0
C      1  0.5747670000000  0.5431690000000  0.4828930000000 1.0
C      1  0.4679230000000  0.4850480000000  0.5736720000000 1.0
C      1  0.5320770000000  0.5149520000000  0.4263280000000 1.0
C      1  0.5596960000000  0.5572590000000  0.5240330000000 1.0
C      1  0.4403040000000  0.4427410000000  0.4759670000000 1.0
C      1  0.4759400000000  0.4197230000000  0.4758120000000 1.0
C      1  0.5240600000000  0.5802770000000  0.5241880000000 1.0
C      1  0.4485690000000  0.4873600000000  0.4777240000000 1.0
C      1  0.5514310000000  0.5126400000000  0.5222760000000 1.0
C      1  0.5574080000000  0.4491670000000  0.5437830000000 1.0
C      1  0.4425920000000  0.5508330000000  0.4562170000000 1.0
C      1  0.5123380000000  0.5686380000000  0.4683540000000 1.0
C      1  0.4876620000000  0.4313620000000  0.5316460000000 1.0
C      1  0.5673110000000  0.4950740000000  0.4582990000000 1.0
C      1  0.4326890000000  0.5049260000000  0.5417010000000 1.0
C      1  0.4207070000000  0.4929610000000  0.5271790000000 1.0
C      1  0.5792930000000  0.5070390000000  0.4728210000000 1.0
C      1  0.4834940000000  0.4103640000000  0.5007530000000 1.0
C      1  0.5165060000000  0.5896360000000  0.4992470000000 1.0
C      1  0.4601200000000  0.4966230000000  0.5188370000000 1.0
C      1  0.5398800000000  0.5033770000000  0.4811630000000 1.0
C      1  0.4727340000000  0.5589960000000  0.5113570000000 1.0
C      1  0.5272660000000  0.4410040000000  0.4886430000000 1.0
C      1  0.5081460000000  0.4535160000000  0.5359180000000 1.0
C      1  0.4918540000000  0.5464840000000  0.4640820000000 1.0
C      1  0.5210020000000  0.4196800000000  0.5427850000000 1.0
C      1  0.4789980000000  0.5803200000000  0.4572150000000 1.0
C      1  0.4523120000000  0.4288250000000  0.5015890000000 1.0
C      1  0.5476880000000  0.5711750000000  0.4984110000000 1.0
C      1  0.4264430000000  0.4920860000000  0.5396880000000 1.0
C      1  0.5735570000000  0.5079140000000  0.4603120000000 1.0
C      1  0.4737880000000  0.5536530000000  0.5611930000000 1.0
C      1  0.5262120000000  0.4463470000000  0.4388070000000 1.0
C      1  0.4456490000000  0.4624340000000  0.5178080000000 1.0
C      1  0.5543510000000  0.5375660000000  0.4821920000000 1.0
C      1  0.4941210000000  0.5876320000000  0.5040060000000 1.0
C      1  0.5058790000000  0.4123680000000  0.4959940000000 1.0
C      1  0.4553780000000  0.5430630000000  0.5059890000000 1.0
C      1  0.5446220000000  0.4569370000000  0.4940110000000 1.0
C      1  0.4915130000000  0.4735370000000  0.4399120000000 1.0
C      1  0.5084870000000  0.5264630000000  0.5600880000000 1.0
C      1  0.4873190000000  0.5277740000000  0.4819180000000 1.0
C      1  0.5126810000000  0.4722260000000  0.5180820000000 1.0
C      1  0.4685570000000  0.5605980000000  0.5484280000000 1.0
C      1  0.5314430000000  0.4394020000000  0.4515720000000 1.0
C      1  0.4915590000000  0.5064050000000  0.5457350000000 1.0
C      1  0.5084410000000  0.4935950000000  0.4542650000000 1.0
C      1  0.5459230000000  0.5045540000000  0.5338330000000 1.0
C      1  0.4540770000000  0.4954460000000  0.4661670000000 1.0
C      1  0.4469450000000  0.5230650000000  0.5492500000000 1.0
C      1  0.5530550000000  0.4769350000000  0.4507500000000 1.0
C      1  0.4866700000000  0.5391740000000  0.5445570000000 1.0
C      1  0.5133300000000  0.4608260000000  0.4554430000000 1.0
C      1  0.5036080000000  0.4533310000000  0.4337060000000 1.0
C      1  0.4963920000000  0.5466690000000  0.5662940000000 1.0
C      1  0.4812190000000  0.5800790000000  0.4439010000000 1.0
C      1  0.5187810000000  0.4199210000000  0.5560990000000 1.0
C      1  0.4827990000000  0.5425250000000  0.4376480000000 1.0
C      1  0.5172010000000  0.4574750000000  0.5623520000000 1.0
C      1  0.4886530000000  0.4580890000000  0.4801690000000 1.0
C      1  0.5113470000000  0.5419110000000  0.5198310000000 1.0
C      1  0.5299820000000  0.4881530000000  0.4639620000000 1.0
C      1  0.4700180000000  0.5118470000000  0.5360380000000 1.0
C      1  0.4817820000000  0.4834610000000  0.4447000000000 1.0
C      1  0.5182180000000  0.5165390000000  0.5553000000000 1.0
C      1  0.5503180000000  0.5102600000000  0.4614840000000 1.0
C      1  0.4496820000000  0.4897400000000  0.5385160000000 1.0
C      1  0.5581590000000  0.4969020000000  0.5408800000000 1.0
C      1  0.4418410000000  0.5030980000000  0.4591200000000 1.0
C      1  0.4392130000000  0.4658720000000  0.5534630000000 1.0
C      1  0.5607870000000  0.5341280000000  0.4465370000000 1.0
C      1  0.4410560000000  0.4634440000000  0.4600080000000 1.0
C      1  0.5589440000000  0.5365560000000  0.5399920000000 1.0
C      1  0.5710020000000  0.4570670000000  0.5119510000000 1.0
C      1  0.4289980000000  0.5429330000000  0.4880490000000 1.0
C      1  0.5482280000000  0.4650930000000  0.5217120000000 1.0
C      1  0.4517720000000  0.5349070000000  0.4782880000000 1.0
C      1  0.4559500000000  0.5202030000000  0.5720320000000 1.0
C      1  0.5440500000000  0.4797970000000  0.4279680000000 1.0
C      1  0.4662560000000  0.4270910000000  0.5192510000000 1.0
C      1  0.5337440000000  0.5729090000000  0.4807490000000 1.0
C      1  0.5365540000000  0.4748250000000  0.4708940000000 1.0
C      1  0.4634460000000  0.5251750000000  0.5291060000000 1.0
C      1  0.5320380000000  0.4182030000000  0.5231630000000 1.0
C      1  0.4679620000000  0.5817970000000  0.4768370000000 1.0
C      1  0.4667300000000  0.4592850000000  0.4688280000000 1.0
C      1  0.5332700000000  0.5407150000000  0.5311720000000 1.0
C      1  0.5445850000000  0.4935860000000  0.4230120000000 1.0
C      1  0.4554150000000  0.5064140000000  0.5769880000000 1.0
C      1  0.4837120000000  0.4946790000000  0.4347600000000 1.0
C      1  0.5162880000000  0.5053210000000  0.5652400000000 1.0
C      1  0.5792390000000  0.5379750000000  0.4949580000000 1.0
C      1  0.4207610000000  0.4620250000000  0.5050420000000 1.0
C      1  0.5333010000000  0.5013900000000  0.4217330000000 1.0
C      1  0.4666990000000  0.4986100000000  0.5782670000000 1.0
C      1  0.4660040000000  0.5191120000000  0.4691170000000 1.0
C      1  0.5339960000000  0.4808880000000  0.5308830000000 1.0
C      1  0.4251780000000  0.5320840000000  0.4606230000000 1.0
C      1  0.5748220000000  0.4679160000000  0.5393770000000 1.0
C      1  0.5399700000000  0.4693150000000  0.4558020000000 1.0
C      1  0.4600300000000  0.5306850000000  0.5441980000000 1.0
C      1  0.4355700000000  0.4627060000000  0.4727720000000 1.0
C      1  0.5644300000000  0.5372940000000  0.5272280000000 1.0
C      1  0.4395960000000  0.5408450000000  0.5376360000000 1.0
C      1  0.5604040000000  0.4591550000000  0.4623640000000 1.0
C      1  0.4248520000000  0.5000470000000  0.4812510000000 1.0
C      1  0.5751480000000  0.4999530000000  0.5187490000000 1.0
C      1  0.4634690000000  0.4684760000000  0.5556810000000 1.0
C      1  0.5365310000000  0.5315240000000  0.4443190000000 1.0
C      1  0.5391220000000  0.5183630000000  0.5166290000000 1.0
C      1  0.4608780000000  0.4816370000000  0.4833710000000 1.0
C      1  0.4607110000000  0.5072100000000  0.4752800000000 1.0
C      1  0.5392890000000  0.4927900000000  0.5247200000000 1.0
C      1  0.5153660000000  0.5052690000000  0.4493360000000 1.0
C      1  0.4846340000000  0.4947310000000  0.5506640000000 1.0
C      1  0.4836530000000  0.5831770000000  0.4947710000000 1.0
C      1  0.5163470000000  0.4168230000000  0.5052290000000 1.0
C      1  0.4762740000000  0.5522420000000  0.4972330000000 1.0
C      1  0.5237260000000  0.4477580000000  0.5027670000000 1.0
C      1  0.4899990000000  0.5560360000000  0.5459300000000 1.0
C      1  0.5100010000000  0.4439640000000  0.4540700000000 1.0
C      1  0.4324840000000  0.4523190000000  0.4820160000000 1.0
C      1  0.5675160000000  0.5476810000000  0.5179840000000 1.0
C      1  0.5385510000000  0.5323360000000  0.5204290000000 1.0
C      1  0.4614490000000  0.4676640000000  0.4795710000000 1.0
C      1  0.5455700000000  0.5544570000000  0.4429350000000 1.0
C      1  0.4544300000000  0.4455430000000  0.5570650000000 1.0
C      1  0.5644540000000  0.5252920000000  0.5463060000000 1.0
C      1  0.4355460000000  0.4747080000000  0.4536940000000 1.0
C      1  0.5233760000000  0.4955620000000  0.4415820000000 1.0
C      1  0.4766240000000  0.5044380000000  0.5584180000000 1.0
C      1  0.5233700000000  0.4450080000000  0.5582160000000 1.0
C      1  0.4766300000000  0.5549920000000  0.4417840000000 1.0
C      1  0.5058320000000  0.5127640000000  0.4407560000000 1.0
C      1  0.4941680000000  0.4872360000000  0.5592440000000 1.0
C      1  0.4892060000000  0.4533590000000  0.4304390000000 1.0
C      1  0.5107940000000  0.5466410000000  0.5695610000000 1.0
C      1  0.5245420000000  0.4454330000000  0.5181700000000 1.0
C      1  0.4754580000000  0.5545670000000  0.4818300000000 1.0
C      1  0.4164760000000  0.4757330000000  0.5068060000000 1.0
C      1  0.5835240000000  0.5242670000000  0.4931940000000 1.0
C      1  0.4922630000000  0.5111180000000  0.4606550000000 1.0
C      1  0.5077370000000  0.4888820000000  0.5393450000000 1.0
C      1  0.5343780000000  0.4534190000000  0.4831700000000 1.0
C      1  0.4656220000000  0.5465810000000  0.5168300000000 1.0
C      1  0.5183310000000  0.4691890000000  0.5525710000000 1.0
C      1  0.4816690000000  0.5308110000000  0.4474290000000 1.0
C      1  0.5586600000000  0.5297690000000  0.5068930000000 1.0
C      1  0.4413400000000  0.4702310000000  0.4931070000000 1.0
C      1  0.5494310000000  0.5549890000000  0.4666580000000 1.0
C      1  0.4505690000000  0.4450110000000  0.5333420000000 1.0
C      1  0.5327500000000  0.5195670000000  0.5519500000000 1.0
C      1  0.4672500000000  0.4804330000000  0.4480500000000 1.0
C      1  0.5543690000000  0.4360720000000  0.5391580000000 1.0
C      1  0.4456310000000  0.5639280000000  0.4608420000000 1.0
C      1  0.4843860000000  0.4434020000000  0.5379910000000 1.0
C      1  0.5156140000000  0.5565980000000  0.4620090000000 1.0
C      1  0.5391830000000  0.5361940000000  0.4827960000000 1.0
C      1  0.4608170000000  0.4638060000000  0.5172040000000 1.0
C      1  0.5238980000000  0.4707350000000  0.4521560000000 1.0
C      1  0.4761020000000  0.5292650000000  0.5478440000000 1.0
C      1  0.5546770000000  0.5182270000000  0.4973770000000 1.0
C      1  0.4453230000000  0.4817730000000  0.5026230000000 1.0
C      1  0.5166140000000  0.5513350000000  0.5573480000000 1.0
C      1  0.4833860000000  0.4486650000000  0.4426520000000 1.0
C      1  0.4594660000000  0.5023910000000  0.4443440000000 1.0
C      1  0.5405340000000  0.4976090000000  0.5556560000000 1.0
C      1  0.5595440000000  0.5047270000000  0.5001710000000 1.0
C      1  0.4404560000000  0.4952730000000  0.4998290000000 1.0
C      1  0.4569380000000  0.5321350000000  0.4517120000000 1.0
C      1  0.5430620000000  0.4678650000000  0.5482880000000 1.0
C      1  0.5726410000000  0.4802400000000  0.5341360000000 1.0
C      1  0.4273590000000  0.5197600000000  0.4658640000000 1.0
C      1  0.5564360000000  0.5428080000000  0.4686390000000 1.0
C      1  0.4435640000000  0.4571920000000  0.5313610000000 1.0
C      1  0.5203390000000  0.5477140000000  0.4878250000000 1.0
C      1  0.4796610000000  0.4522860000000  0.5121750000000 1.0
C      1  0.5166260000000  0.4826490000000  0.4601500000000 1.0
C      1  0.4833740000000  0.5173510000000  0.5398500000000 1.0
C      1  0.5506550000000  0.4385640000000  0.4705190000000 1.0
C      1  0.4493450000000  0.5614360000000  0.5294810000000 1.0
C      1  0.5186030000000  0.4919760000000  0.5608510000000 1.0
C      1  0.4813970000000  0.5080240000000  0.4391490000000 1.0
C      1  0.4532980000000  0.5262050000000  0.4651160000000 1.0
C      1  0.5467020000000  0.4737950000000  0.5348840000000 1.0
C      1  0.4388200000000  0.5511850000000  0.5276770000000 1.0
C      1  0.5611800000000  0.4488150000000  0.4723230000000 1.0
C      1  0.4817670000000  0.4276850000000  0.5189160000000 1.0
C      1  0.5182330000000  0.5723150000000  0.4810840000000 1.0
C      1  0.5022830000000  0.4957440000000  0.5820080000000 1.0
C      1  0.4977170000000  0.5042560000000  0.4179920000000 1.0
C      1  0.5320560000000  0.5642650000000  0.5455340000000 1.0
C      1  0.4679440000000  0.4357350000000  0.4544660000000 1.0
C      1  0.4431980000000  0.5540970000000  0.5043290000000 1.0
C      1  0.5568020000000  0.4459030000000  0.4956710000000 1.0
C      1  0.4905880000000  0.4622040000000  0.5129370000000 1.0
C      1  0.5094120000000  0.5377960000000  0.4870630000000 1.0
C      1  0.4807990000000  0.4978930000000  0.5055330000000 1.0
C      1  0.5192010000000  0.5021070000000  0.4944670000000 1.0
C      1  0.5048060000000  0.4582810000000  0.5137540000000 1.0
C      1  0.4951940000000  0.5417190000000  0.4862460000000 1.0
C      1  0.5182980000000  0.4162880000000  0.5203230000000 1.0
C      1  0.4817020000000  0.5837120000000  0.4796770000000 1.0
C      1  0.5065130000000  0.4602930000000  0.5710730000000 1.0
C      1  0.4934870000000  0.5397070000000  0.4289270000000 1.0
C      1  0.4999470000000  0.4269910000000  0.5370560000000 1.0
C      1  0.5000530000000  0.5730090000000  0.4629440000000 1.0
C      1  0.4366020000000  0.5543670000000  0.4912230000000 1.0
C      1  0.5633980000000  0.4456330000000  0.5087770000000 1.0
C      1  0.4902490000000  0.5325130000000  0.5055780000000 1.0
C      1  0.5097510000000  0.4674870000000  0.4944220000000 1.0
C      1  0.5750460000000  0.4884030000000  0.4886440000000 1.0
C      1  0.4249540000000  0.5115970000000  0.5113560000000 1.0
C      1  0.5471940000000  0.4763020000000  0.5087680000000 1.0
C      1  0.4528060000000  0.5236980000000  0.4912320000000 1.0
C      1  0.4441570000000  0.4776400000000  0.4429520000000 1.0
C      1  0.5558430000000  0.5223600000000  0.5570480000000 1.0
C      1  0.5784410000000  0.4930920000000  0.5305940000000 1.0
C      1  0.4215590000000  0.5069080000000  0.4694060000000 1.0
C      1  0.4557510000000  0.4272950000000  0.4878190000000 1.0
C      1  0.5442490000000  0.5727050000000  0.5121810000000 1.0
C      1  0.4806070000000  0.5654740000000  0.5413210000000 1.0
C      1  0.5193930000000  0.4345260000000  0.4586790000000 1.0
C      1  0.5030890000000  0.4716600000000  0.5802970000000 1.0
C      1  0.4969110000000  0.5283400000000  0.4197030000000 1.0
C      1  0.5758480000000  0.5198900000000  0.4803160000000 1.0
C      1  0.4241520000000  0.4801100000000  0.5196840000000 1.0
C      1  0.4325050000000  0.4577240000000  0.4963920000000 1.0
C      1  0.5674950000000  0.5422760000000  0.5036080000000 1.0
C      1  0.4959290000000  0.4972730000000  0.4595410000000 1.0
C      1  0.5040710000000  0.5027270000000  0.5404590000000 1.0
C      1  0.5476320000000  0.5406780000000  0.4440580000000 1.0
C      1  0.4523680000000  0.4593220000000  0.5559420000000 1.0
C      1  0.5419900000000  0.5600370000000  0.4788320000000 1.0
C      1  0.4580100000000  0.4399630000000  0.5211680000000 1.0
C      1  0.5479500000000  0.4563580000000  0.4561610000000 1.0
C      1  0.4520500000000  0.5436420000000  0.5438390000000 1.0
C      1  0.4126260000000  0.4825870000000  0.4955700000000 1.0
C      1  0.5873740000000  0.5174130000000  0.5044300000000 1.0
C      1  0.5364030000000  0.5334690000000  0.4977340000000 1.0
C      1  0.4635970000000  0.4665310000000  0.5022660000000 1.0
C      1  0.5018430000000  0.5766130000000  0.5315270000000 1.0
C      1  0.4981570000000  0.4233870000000  0.4684730000000 1.0
C      1  0.4966330000000  0.4798340000000  0.4777920000000 1.0
C      1  0.5033670000000  0.5201660000000  0.5222080000000 1.0
C      1  0.5371880000000  0.5076460000000  0.5452220000000 1.0
C      1  0.4628120000000  0.4923540000000  0.4547780000000 1.0
C      1  0.4719700000000  0.4992920000000  0.5284060000000 1.0
C      1  0.5280300000000  0.5007080000000  0.4715940000000 1.0
C      1  0.5158340000000  0.5622920000000  0.5044420000000 1.0
C      1  0.4841660000000  0.4377080000000  0.4955580000000 1.0
C      1  0.4489570000000  0.5735050000000  0.4931780000000 1.0
C      1  0.5510430000000  0.4264950000000  0.5068220000000 1.0
C      1  0.4483310000000  0.5116410000000  0.4825190000000 1.0
C      1  0.5516690000000  0.4883590000000  0.5174810000000 1.0
C      1  0.4933370000000  0.4094560000000  0.4898730000000 1.0
C      1  0.5066630000000  0.5905440000000  0.5101270000000 1.0
C      1  0.4269660000000  0.5163030000000  0.5355870000000 1.0
C      1  0.5730340000000  0.4836970000000  0.4644130000000 1.0
C      1  0.5469860000000  0.4786940000000  0.4811890000000 1.0
C      1  0.4530140000000  0.5213060000000  0.5188110000000 1.0
C      1  0.4915270000000  0.5164370000000  0.4464440000000 1.0
C      1  0.5084730000000  0.4835630000000  0.5535560000000 1.0
C      1  0.4228090000000  0.5248280000000  0.5071710000000 1.0
C      1  0.5771910000000  0.4751720000000  0.4928290000000 1.0
C      1  0.4997840000000  0.5361940000000  0.5527060000000 1.0
C      1  0.5002160000000  0.4638060000000  0.4472940000000 1.0
C      1  0.4459970000000  0.5163930000000  0.5620960000000 1.0
C      1  0.5540030000000  0.4836070000000  0.4379040000000 1.0
C      1  0.4700750000000  0.5800200000000  0.5000360000000 1.0
C      1  0.5299250000000  0.4199800000000  0.4999640000000 1.0
C      1  0.4789880000000  0.5051810000000  0.5731440000000 1.0
C      1  0.5210120000000  0.4948190000000  0.4268560000000 1.0
C      1  0.4478970000000  0.4389810000000  0.4652260000000 1.0
C      1  0.5521030000000  0.5610190000000  0.5347740000000 1.0
C      1  0.5761020000000  0.4658050000000  0.5024320000000 1.0
C      1  0.4238980000000  0.5341950000000  0.4975680000000 1.0
C      1  0.5219030000000  0.5510450000000  0.5123770000000 1.0
C      1  0.4780970000000  0.4489550000000  0.4876230000000 1.0
C      1  0.5026010000000  0.5547090000000  0.5380900000000 1.0
C      1  0.4973990000000  0.4452910000000  0.4619100000000 1.0
C      1  0.4678570000000  0.5256160000000  0.4453670000000 1.0
C      1  0.5321430000000  0.4743840000000  0.5546330000000 1.0
C      1  0.5609860000000  0.4303290000000  0.5288020000000 1.0
C      1  0.4390140000000  0.5696710000000  0.4711980000000 1.0
C      1  0.4870920000000  0.4673520000000  0.4278260000000 1.0
C      1  0.5129080000000  0.5326480000000  0.5721740000000 1.0
C      1  0.5077050000000  0.5394720000000  0.4335510000000 1.0
C      1  0.4922950000000  0.4605280000000  0.5664490000000 1.0
C      1  0.4662750000000  0.4939600000000  0.5057000000000 1.0
C      1  0.5337250000000  0.5060400000000  0.4943000000000 1.0
C      1  0.5626490000000  0.5207190000000  0.4426840000000 1.0
C      1  0.4373510000000  0.4792810000000  0.5573160000000 1.0
C      1  0.4419550000000  0.5160930000000  0.4670450000000 1.0
C      1  0.5580450000000  0.4839070000000  0.5329550000000 1.0
C      1  0.4842920000000  0.5647170000000  0.5175550000000 1.0
C      1  0.5157080000000  0.4352830000000  0.4824450000000 1.0
C      1  0.4898030000000  0.4153190000000  0.4770880000000 1.0
C      1  0.5101970000000  0.5846810000000  0.5229120000000 1.0
C      1  0.5348780000000  0.4939400000000  0.4500320000000 1.0
C      1  0.4651220000000  0.5060600000000  0.5499680000000 1.0
C      1  0.5335830000000  0.4225070000000  0.5368350000000 1.0
C      1  0.4664170000000  0.5774930000000  0.4631650000000 1.0
C      1  0.4454240000000  0.4879450000000  0.5645920000000 1.0
C      1  0.5545760000000  0.5120550000000  0.4354080000000 1.0
C      1  0.4982810000000  0.5762080000000  0.4955730000000 1.0
C      1  0.5017190000000  0.4237920000000  0.5044270000000 1.0
C      1  0.4639490000000  0.5563570000000  0.4483010000000 1.0
C      1  0.5360510000000  0.4436430000000  0.5516990000000 1.0
C      1  0.4542400000000  0.5458040000000  0.4499440000000 1.0
C      1  0.5457600000000  0.4541960000000  0.5500560000000 1.0
C      1  0.4173980000000  0.4877490000000  0.4838690000000 1.0
C      1  0.5826020000000  0.5122510000000  0.5161310000000 1.0
C      1  0.5025720000000  0.5647770000000  0.5039660000000 1.0
C      1  0.4974280000000  0.4352230000000  0.4960340000000 1.0
C      1  0.5620170000000  0.5245700000000  0.5203100000000 1.0
C      1  0.4379830000000  0.4754300000000  0.4796900000000 1.0
C      1  0.4404760000000  0.4991030000000  0.4859080000000 1.0
C      1  0.5595240000000  0.5008970000000  0.5140920000000 1.0
C      1  0.4592550000000  0.4453990000000  0.5442350000000 1.0
C      1  0.5407450000000  0.5546010000000  0.4557650000000 1.0
C      1  0.5633300000000  0.5176580000000  0.4570600000000 1.0
C      1  0.4366700000000  0.4823420000000  0.5429400000000 1.0
C      1  0.5665670000000  0.4573870000000  0.5365960000000 1.0
C      1  0.4334330000000  0.5426130000000  0.4634040000000 1.0
C      1  0.5579360000000  0.5223660000000  0.4834630000000 1.0
C      1  0.4420640000000  0.4776340000000  0.5165370000000 1.0
C      1  0.5425110000000  0.5295470000000  0.5542440000000 1.0
C      1  0.4574890000000  0.4704530000000  0.4457560000000 1.0
C      1  0.5256530000000  0.5109120000000  0.4593820000000 1.0
C      1  0.4743470000000  0.4890880000000  0.5406180000000 1.0
C      1  0.5085300000000  0.5080780000000  0.5765110000000 1.0
C      1  0.4914700000000  0.4919220000000  0.4234890000000 1.0
C      1  0.5410080000000  0.4326990000000  0.5434570000000 1.0
C      1  0.4589920000000  0.5673010000000  0.4565430000000 1.0
C      1  0.4401640000000  0.5664530000000  0.4844000000000 1.0
C      1  0.5598360000000  0.4335470000000  0.5156000000000 1.0
C      1  0.5128410000000  0.4278380000000  0.4699940000000 1.0
C      1  0.4871590000000  0.5721620000000  0.5300060000000 1.0
C      1  0.5104390000000  0.5824870000000  0.4888110000000 1.0
C      1  0.4895610000000  0.4175130000000  0.5111890000000 1.0
C      1  0.5391080000000  0.5177930000000  0.5011470000000 1.0
C      1  0.4608920000000  0.4822070000000  0.4988530000000 1.0
C      1  0.5544530000000  0.4966300000000  0.4647100000000 1.0
C      1  0.4455470000000  0.5033700000000  0.5352900000000 1.0
C      1  0.5115300000000  0.5406240000000  0.4470090000000 1.0
C      1  0.4884700000000  0.4593760000000  0.5529910000000 1.0
C      1  0.4802820000000  0.4362030000000  0.4480060000000 1.0
C      1  0.5197180000000  0.5637970000000  0.5519940000000 1.0
C      1  0.4925250000000  0.5165900000000  0.4142800000000 1.0
C      1  0.5074750000000  0.4834100000000  0.5857200000000 1.0
C      1  0.4955640000000  0.5158200000000  0.4747170000000 1.0
C      1  0.5044360000000  0.4841800000000  0.5252830000000 1.0
C      1  0.4208320000000  0.5078430000000  0.5241230000000 1.0
C      1  0.5791680000000  0.4921570000000  0.4758770000000 1.0
C      1  0.4451390000000  0.5016500000000  0.4444250000000 1.0
C      1  0.5548610000000  0.4983500000000  0.5555750000000 1.0
C      1  0.5317890000000  0.5479960000000  0.4774770000000 1.0
C      1  0.4682110000000  0.4520040000000  0.5225230000000 1.0
C      1  0.4787690000000  0.5195810000000  0.5774050000000 1.0
C      1  0.5212310000000  0.4804190000000  0.4225950000000 1.0
C      1  0.4861080000000  0.4873470000000  0.4583280000000 1.0
C      1  0.5138920000000  0.5126530000000  0.5416720000000 1.0
C      1  0.5174850000000  0.4634090000000  0.5389660000000 1.0
C      1  0.4825150000000  0.5365910000000  0.4610340000000 1.0
END
