TITL C-526663-2196-45 -0.00543733423578604 1000000 -3661.08449047974 0 0 520 (Ci) n - 1
REM
REM in /scratch/bkarasulu/Only-C240
REM
REM
REM
REM
REM
REM ./C.cell (db1db5b03a21c153a00b653f6831bbfd)
REM
REM compiler GCC version 9.2.1 20190827 (Red Hat 9.2.1-1)
REM options -cpp -mtune=generic -march=x86-64 -g -O0 -fpre-include=/usr/include/finclude/math-vector-fortran.h
REM seed 106801868 2039956380 2049872043 -1874596020 -1053314953 -870194097 -1994244305 1276558541 1812128636 -1205130391 -1133899501 735156716 -1528407884 -81684924 -460765232 1513829201 571844059 -860040961 950698097 -959141994 -1011539422 764469045 1076792636 -358358301 -1621109106 806773868 908242761 785800687 -97908740 325723456 -1325422405 1031430448 556156181
REM
CELL 1.54180  100.00000  100.00000  100.00000   90.00000   90.00000   90.00000
LATT -1
SFAC C  
C      1  0.5130950000000  0.4893880000000  0.5261570000000 1.0
C      1  0.4869050000000  0.5106120000000  0.4738430000000 1.0
C      1  0.5455830000000  0.5306940000000  0.5640340000000 1.0
C      1  0.4544170000000  0.4693060000000  0.4359660000000 1.0
C      1  0.5661750000000  0.4841010000000  0.4916140000000 1.0
C      1  0.4338250000000  0.5158990000000  0.5083860000000 1.0
C      1  0.4500230000000  0.5648740000000  0.4748360000000 1.0
C      1  0.5499770000000  0.4351260000000  0.5251640000000 1.0
C      1  0.5087830000000  0.4627140000000  0.5814710000000 1.0
C      1  0.4912170000000  0.5372860000000  0.4185290000000 1.0
C      1  0.5668600000000  0.5394480000000  0.4593550000000 1.0
C      1  0.4331400000000  0.4605520000000  0.5406450000000 1.0
C      1  0.4937090000000  0.5526810000000  0.4838440000000 1.0
C      1  0.5062910000000  0.4473190000000  0.5161560000000 1.0
C      1  0.4677210000000  0.4974700000000  0.4478040000000 1.0
C      1  0.5322790000000  0.5025300000000  0.5521960000000 1.0
C      1  0.4389490000000  0.4953390000000  0.5720610000000 1.0
C      1  0.5610510000000  0.5046610000000  0.4279390000000 1.0
C      1  0.4326270000000  0.5137840000000  0.5439320000000 1.0
C      1  0.5673730000000  0.4862160000000  0.4560680000000 1.0
C      1  0.5642010000000  0.4503090000000  0.4809270000000 1.0
C      1  0.4357990000000  0.5496910000000  0.5190730000000 1.0
C      1  0.5339460000000  0.5244990000000  0.5416970000000 1.0
C      1  0.4660540000000  0.4755010000000  0.4583030000000 1.0
C      1  0.4525430000000  0.4558370000000  0.5598370000000 1.0
C      1  0.5474570000000  0.5441630000000  0.4401630000000 1.0
C      1  0.4810150000000  0.5351780000000  0.4686650000000 1.0
C      1  0.5189850000000  0.4648220000000  0.5313350000000 1.0
C      1  0.5455490000000  0.5573670000000  0.4854990000000 1.0
C      1  0.4544510000000  0.4426330000000  0.5145010000000 1.0
C      1  0.5581300000000  0.5194090000000  0.5483150000000 1.0
C      1  0.4418700000000  0.4805910000000  0.4516850000000 1.0
C      1  0.4437450000000  0.4986640000000  0.5258860000000 1.0
C      1  0.5562550000000  0.5013360000000  0.4741140000000 1.0
C      1  0.5564120000000  0.5317320000000  0.5549840000000 1.0
C      1  0.4435880000000  0.4682680000000  0.4450160000000 1.0
C      1  0.4504460000000  0.4370290000000  0.5011430000000 1.0
C      1  0.5495540000000  0.5629710000000  0.4988570000000 1.0
C      1  0.4828210000000  0.5642280000000  0.5583970000000 1.0
C      1  0.5171790000000  0.4357720000000  0.4416030000000 1.0
C      1  0.4565890000000  0.5088320000000  0.4674830000000 1.0
C      1  0.5434110000000  0.4911680000000  0.5325170000000 1.0
C      1  0.5444620000000  0.4605670000000  0.5255430000000 1.0
C      1  0.4555380000000  0.5394330000000  0.4744570000000 1.0
C      1  0.5757730000000  0.5265190000000  0.5064340000000 1.0
C      1  0.4242270000000  0.4734810000000  0.4935660000000 1.0
C      1  0.5821500000000  0.4951860000000  0.5401170000000 1.0
C      1  0.4178500000000  0.5048140000000  0.4598830000000 1.0
C      1  0.5197890000000  0.4217380000000  0.4914260000000 1.0
C      1  0.4802110000000  0.5782620000000  0.5085740000000 1.0
C      1  0.4584140000000  0.4664090000000  0.5670400000000 1.0
C      1  0.5415860000000  0.5335910000000  0.4329600000000 1.0
C      1  0.4946040000000  0.5388210000000  0.5469260000000 1.0
C      1  0.5053960000000  0.4611790000000  0.4530740000000 1.0
C      1  0.4557580000000  0.5248510000000  0.4203660000000 1.0
C      1  0.5442420000000  0.4751490000000  0.5796340000000 1.0
C      1  0.5139090000000  0.4788390000000  0.5354140000000 1.0
C      1  0.4860910000000  0.5211610000000  0.4645860000000 1.0
C      1  0.5513970000000  0.4840540000000  0.5741160000000 1.0
C      1  0.4486030000000  0.5159460000000  0.4258840000000 1.0
C      1  0.5350270000000  0.4472330000000  0.5434290000000 1.0
C      1  0.4649730000000  0.5527670000000  0.4565710000000 1.0
C      1  0.4585710000000  0.5342340000000  0.5067790000000 1.0
C      1  0.5414290000000  0.4657660000000  0.4932210000000 1.0
C      1  0.4572710000000  0.5457340000000  0.4468650000000 1.0
C      1  0.5427290000000  0.4542660000000  0.5531350000000 1.0
C      1  0.4234840000000  0.5179400000000  0.4762220000000 1.0
C      1  0.5765160000000  0.4820600000000  0.5237780000000 1.0
C      1  0.5025880000000  0.4513420000000  0.5740920000000 1.0
C      1  0.4974120000000  0.5486580000000  0.4259080000000 1.0
C      1  0.4934500000000  0.4211560000000  0.5281920000000 1.0
C      1  0.5065500000000  0.5788440000000  0.4718080000000 1.0
C      1  0.5028950000000  0.4979920000000  0.4587560000000 1.0
C      1  0.4971050000000  0.5020080000000  0.5412440000000 1.0
C      1  0.5590120000000  0.5382600000000  0.4873030000000 1.0
C      1  0.4409880000000  0.4617400000000  0.5126970000000 1.0
C      1  0.4601630000000  0.4973120000000  0.4602180000000 1.0
C      1  0.5398370000000  0.5026880000000  0.5397820000000 1.0
C      1  0.4498050000000  0.4408140000000  0.4689100000000 1.0
C      1  0.5501950000000  0.5591860000000  0.5310900000000 1.0
C      1  0.5336900000000  0.4645750000000  0.5597560000000 1.0
C      1  0.4663100000000  0.5354250000000  0.4402440000000 1.0
C      1  0.5317340000000  0.4678130000000  0.5250530000000 1.0
C      1  0.4682660000000  0.5321870000000  0.4749470000000 1.0
C      1  0.4728400000000  0.5103880000000  0.4428560000000 1.0
C      1  0.5271600000000  0.4896120000000  0.5571440000000 1.0
C      1  0.5094140000000  0.5028880000000  0.4085430000000 1.0
C      1  0.4905860000000  0.4971120000000  0.5914570000000 1.0
C      1  0.5090740000000  0.5702700000000  0.5458430000000 1.0
C      1  0.4909260000000  0.4297300000000  0.4541570000000 1.0
C      1  0.4759540000000  0.4829210000000  0.4760460000000 1.0
C      1  0.5240460000000  0.5170790000000  0.5239540000000 1.0
C      1  0.4535900000000  0.4967570000000  0.5482710000000 1.0
C      1  0.5464100000000  0.5032430000000  0.4517290000000 1.0
C      1  0.5101010000000  0.5388770000000  0.4412760000000 1.0
C      1  0.4898990000000  0.4611230000000  0.5587240000000 1.0
C      1  0.5319210000000  0.5380240000000  0.5161800000000 1.0
C      1  0.4680790000000  0.4619760000000  0.4838200000000 1.0
C      1  0.5178450000000  0.5166480000000  0.4481310000000 1.0
C      1  0.4821550000000  0.4833520000000  0.5518690000000 1.0
C      1  0.5235860000000  0.5158490000000  0.5488090000000 1.0
C      1  0.4764140000000  0.4841510000000  0.4511910000000 1.0
C      1  0.4933120000000  0.5802700000000  0.5110590000000 1.0
C      1  0.5066880000000  0.4197300000000  0.4889410000000 1.0
C      1  0.5153000000000  0.4989040000000  0.4863050000000 1.0
C      1  0.4847000000000  0.5010960000000  0.5136950000000 1.0
C      1  0.5340860000000  0.4661500000000  0.5756850000000 1.0
C      1  0.4659140000000  0.5338500000000  0.4243150000000 1.0
C      1  0.4381150000000  0.5614830000000  0.4990840000000 1.0
C      1  0.5618850000000  0.4385170000000  0.5009160000000 1.0
C      1  0.4972050000000  0.5084630000000  0.5712700000000 1.0
C      1  0.5027950000000  0.4915370000000  0.4287300000000 1.0
C      1  0.5372810000000  0.4466100000000  0.4490470000000 1.0
C      1  0.4627190000000  0.5533900000000  0.5509530000000 1.0
C      1  0.5716990000000  0.4582210000000  0.4904000000000 1.0
C      1  0.4283010000000  0.5417790000000  0.5096000000000 1.0
C      1  0.5491390000000  0.5121820000000  0.4250240000000 1.0
C      1  0.4508610000000  0.4878180000000  0.5749760000000 1.0
C      1  0.5157810000000  0.4895630000000  0.5664620000000 1.0
C      1  0.4842190000000  0.5104370000000  0.4335380000000 1.0
C      1  0.5260730000000  0.4231990000000  0.5046040000000 1.0
C      1  0.4739270000000  0.5768010000000  0.4953960000000 1.0
C      1  0.4786610000000  0.4771110000000  0.5379120000000 1.0
C      1  0.5213390000000  0.5228890000000  0.4620880000000 1.0
C      1  0.4576290000000  0.4583220000000  0.4929070000000 1.0
C      1  0.5423710000000  0.5416780000000  0.5070930000000 1.0
C      1  0.4882260000000  0.4488740000000  0.4694660000000 1.0
C      1  0.5117740000000  0.5511260000000  0.5305340000000 1.0
C      1  0.5145630000000  0.4998370000000  0.5871050000000 1.0
C      1  0.4854370000000  0.5001630000000  0.4128950000000 1.0
C      1  0.5044560000000  0.4662880000000  0.4913600000000 1.0
C      1  0.4955440000000  0.5337120000000  0.5086400000000 1.0
C      1  0.5524360000000  0.4921500000000  0.4260570000000 1.0
C      1  0.4475640000000  0.5078500000000  0.5739430000000 1.0
C      1  0.5806290000000  0.5086580000000  0.4937470000000 1.0
C      1  0.4193710000000  0.4913420000000  0.5062530000000 1.0
C      1  0.5390460000000  0.5030340000000  0.4978090000000 1.0
C      1  0.4609540000000  0.4969660000000  0.5021910000000 1.0
C      1  0.4508520000000  0.4779060000000  0.5644490000000 1.0
C      1  0.5491480000000  0.5220940000000  0.4355510000000 1.0
C      1  0.5206210000000  0.4773740000000  0.4363760000000 1.0
C      1  0.4793790000000  0.5226260000000  0.5636240000000 1.0
C      1  0.4938830000000  0.5207980000000  0.4534390000000 1.0
C      1  0.5061170000000  0.4792020000000  0.5465610000000 1.0
C      1  0.5258670000000  0.5015080000000  0.4274140000000 1.0
C      1  0.4741330000000  0.4984920000000  0.5725860000000 1.0
C      1  0.4727200000000  0.5040850000000  0.5057730000000 1.0
C      1  0.5272800000000  0.4959150000000  0.4942270000000 1.0
C      1  0.5118410000000  0.4466010000000  0.5640810000000 1.0
C      1  0.4881590000000  0.5533990000000  0.4359190000000 1.0
C      1  0.5744780000000  0.4727000000000  0.4870690000000 1.0
C      1  0.4255220000000  0.5273000000000  0.5129310000000 1.0
C      1  0.5317270000000  0.5559640000000  0.4555030000000 1.0
C      1  0.4682730000000  0.4440360000000  0.5444970000000 1.0
C      1  0.5040510000000  0.5585500000000  0.5046700000000 1.0
C      1  0.4959490000000  0.4414500000000  0.4953300000000 1.0
C      1  0.4337090000000  0.5464620000000  0.5328440000000 1.0
C      1  0.5662910000000  0.4535380000000  0.4671560000000 1.0
C      1  0.4427530000000  0.5487630000000  0.5437350000000 1.0
C      1  0.5572470000000  0.4512370000000  0.4562650000000 1.0
C      1  0.4956250000000  0.5236310000000  0.4189220000000 1.0
C      1  0.5043750000000  0.4763690000000  0.5810780000000 1.0
C      1  0.5408670000000  0.5701180000000  0.5083360000000 1.0
C      1  0.4591330000000  0.4298820000000  0.4916640000000 1.0
C      1  0.5060060000000  0.5391490000000  0.5384250000000 1.0
C      1  0.4939940000000  0.4608510000000  0.4615750000000 1.0
C      1  0.5541580000000  0.4933170000000  0.5641930000000 1.0
C      1  0.4458420000000  0.5066830000000  0.4358070000000 1.0
C      1  0.5156430000000  0.5504720000000  0.5068070000000 1.0
C      1  0.4843570000000  0.4495280000000  0.4931930000000 1.0
C      1  0.5033250000000  0.5095940000000  0.4495640000000 1.0
C      1  0.4966750000000  0.4904060000000  0.5504360000000 1.0
C      1  0.5249650000000  0.4559240000000  0.4317660000000 1.0
C      1  0.4750350000000  0.5440760000000  0.5682340000000 1.0
C      1  0.5816490000000  0.4950030000000  0.5177470000000 1.0
C      1  0.4183510000000  0.5049970000000  0.4822530000000 1.0
C      1  0.5671620000000  0.5426860000000  0.5353420000000 1.0
C      1  0.4328380000000  0.4573140000000  0.4646580000000 1.0
C      1  0.5280750000000  0.5347500000000  0.4299010000000 1.0
C      1  0.4719250000000  0.4652500000000  0.5700990000000 1.0
C      1  0.4434490000000  0.5106540000000  0.5174970000000 1.0
C      1  0.5565510000000  0.4893460000000  0.4825030000000 1.0
C      1  0.4300210000000  0.4847520000000  0.4854170000000 1.0
C      1  0.5699790000000  0.5152480000000  0.5145830000000 1.0
C      1  0.5680440000000  0.5511180000000  0.5135880000000 1.0
C      1  0.4319560000000  0.4488820000000  0.4864120000000 1.0
C      1  0.4534460000000  0.5304150000000  0.5620540000000 1.0
C      1  0.5465540000000  0.4695850000000  0.4379460000000 1.0
C      1  0.4702740000000  0.5525240000000  0.5000880000000 1.0
C      1  0.5297260000000  0.4474760000000  0.4999120000000 1.0
C      1  0.5071070000000  0.4508770000000  0.4902170000000 1.0
C      1  0.4928930000000  0.5491230000000  0.5097830000000 1.0
C      1  0.4389320000000  0.4425950000000  0.4961050000000 1.0
C      1  0.5610680000000  0.5574050000000  0.5038950000000 1.0
C      1  0.5478450000000  0.5214250000000  0.5255050000000 1.0
C      1  0.4521550000000  0.4785750000000  0.4744950000000 1.0
C      1  0.4715170000000  0.5561040000000  0.5613060000000 1.0
C      1  0.5284830000000  0.4438960000000  0.4386940000000 1.0
C      1  0.5149800000000  0.4865730000000  0.5806920000000 1.0
C      1  0.4850200000000  0.5134270000000  0.4193080000000 1.0
C      1  0.4495490000000  0.5414090000000  0.4879800000000 1.0
C      1  0.5504510000000  0.4585910000000  0.5120200000000 1.0
C      1  0.5332910000000  0.5520620000000  0.4807320000000 1.0
C      1  0.4667090000000  0.4479380000000  0.5192680000000 1.0
C      1  0.4640430000000  0.4467790000000  0.5578210000000 1.0
C      1  0.5359570000000  0.5532210000000  0.4421790000000 1.0
C      1  0.5620230000000  0.4808080000000  0.5234510000000 1.0
C      1  0.4379770000000  0.5191920000000  0.4765490000000 1.0
C      1  0.4842390000000  0.4494090000000  0.5310570000000 1.0
C      1  0.5157610000000  0.5505910000000  0.4689430000000 1.0
C      1  0.5608440000000  0.5389740000000  0.4454220000000 1.0
C      1  0.4391560000000  0.4610260000000  0.5545780000000 1.0
C      1  0.5075140000000  0.4748860000000  0.4451600000000 1.0
C      1  0.4924860000000  0.5251140000000  0.5548400000000 1.0
C      1  0.5349410000000  0.4821420000000  0.5224940000000 1.0
C      1  0.4650590000000  0.5178580000000  0.4775060000000 1.0
C      1  0.5778260000000  0.4883380000000  0.4655110000000 1.0
C      1  0.4221740000000  0.5116620000000  0.5344890000000 1.0
C      1  0.4837070000000  0.4734140000000  0.5640300000000 1.0
C      1  0.5162930000000  0.5265860000000  0.4359700000000 1.0
C      1  0.5645780000000  0.4631680000000  0.5404140000000 1.0
C      1  0.4354220000000  0.5368320000000  0.4595860000000 1.0
C      1  0.4365930000000  0.4504010000000  0.5322540000000 1.0
C      1  0.5634070000000  0.5495990000000  0.4677460000000 1.0
C      1  0.4430870000000  0.4500570000000  0.5202520000000 1.0
C      1  0.5569130000000  0.5499430000000  0.4797480000000 1.0
C      1  0.4283750000000  0.4724990000000  0.5326490000000 1.0
C      1  0.5716250000000  0.5275010000000  0.4673510000000 1.0
C      1  0.4954200000000  0.4290150000000  0.4852760000000 1.0
C      1  0.5045800000000  0.5709850000000  0.5147240000000 1.0
C      1  0.5253870000000  0.5059640000000  0.4422770000000 1.0
C      1  0.4746130000000  0.4940360000000  0.5577230000000 1.0
C      1  0.5009740000000  0.4941200000000  0.5644650000000 1.0
C      1  0.4990260000000  0.5058800000000  0.4355350000000 1.0
C      1  0.4833910000000  0.4794260000000  0.4876040000000 1.0
C      1  0.5166090000000  0.5205740000000  0.5123960000000 1.0
C      1  0.5214380000000  0.4528270000000  0.5422990000000 1.0
C      1  0.4785620000000  0.5471730000000  0.4577010000000 1.0
C      1  0.5312800000000  0.5455420000000  0.4669700000000 1.0
C      1  0.4687200000000  0.4544580000000  0.5330300000000 1.0
C      1  0.4999090000000  0.5359470000000  0.5735800000000 1.0
C      1  0.5000910000000  0.4640530000000  0.4264200000000 1.0
C      1  0.5591320000000  0.4383250000000  0.5151020000000 1.0
C      1  0.4408680000000  0.5616750000000  0.4848980000000 1.0
C      1  0.5356650000000  0.5407760000000  0.5626800000000 1.0
C      1  0.4643350000000  0.4592240000000  0.4373200000000 1.0
C      1  0.4734890000000  0.5628200000000  0.4911410000000 1.0
C      1  0.5265110000000  0.4371800000000  0.5088590000000 1.0
C      1  0.5614000000000  0.4880010000000  0.5512570000000 1.0
C      1  0.4386000000000  0.5119990000000  0.4487430000000 1.0
C      1  0.5062900000000  0.5600990000000  0.4892330000000 1.0
C      1  0.4937100000000  0.4399010000000  0.5107670000000 1.0
C      1  0.4566450000000  0.5481140000000  0.5016900000000 1.0
C      1  0.5433550000000  0.4518860000000  0.4983100000000 1.0
C      1  0.4505190000000  0.5289340000000  0.4955020000000 1.0
C      1  0.5494810000000  0.4710660000000  0.5044980000000 1.0
C      1  0.5199190000000  0.5623470000000  0.4604060000000 1.0
C      1  0.4800810000000  0.4376530000000  0.5395940000000 1.0
C      1  0.4929470000000  0.5164520000000  0.5422670000000 1.0
C      1  0.5070530000000  0.4835480000000  0.4577330000000 1.0
C      1  0.5663610000000  0.5265050000000  0.4815820000000 1.0
C      1  0.4336390000000  0.4734950000000  0.5184180000000 1.0
C      1  0.4733960000000  0.4398070000000  0.4490030000000 1.0
C      1  0.5266040000000  0.5601930000000  0.5509970000000 1.0
C      1  0.5635130000000  0.5271140000000  0.4370660000000 1.0
C      1  0.4364870000000  0.4728860000000  0.5629340000000 1.0
C      1  0.5634880000000  0.4938840000000  0.5014870000000 1.0
C      1  0.4365120000000  0.5061160000000  0.4985130000000 1.0
C      1  0.4549640000000  0.4859060000000  0.5089020000000 1.0
C      1  0.5450360000000  0.5140940000000  0.4910980000000 1.0
C      1  0.4974470000000  0.5081360000000  0.5176850000000 1.0
C      1  0.5025530000000  0.4918640000000  0.4823150000000 1.0
C      1  0.5278630000000  0.5765980000000  0.5048250000000 1.0
C      1  0.4721370000000  0.4234020000000  0.4951750000000 1.0
C      1  0.5834890000000  0.5024920000000  0.4822670000000 1.0
C      1  0.4165110000000  0.4975080000000  0.5177330000000 1.0
C      1  0.4593670000000  0.4989960000000  0.5768820000000 1.0
C      1  0.5406330000000  0.5010040000000  0.4231180000000 1.0
C      1  0.5024450000000  0.5224760000000  0.5173170000000 1.0
C      1  0.4975550000000  0.4775240000000  0.4826830000000 1.0
C      1  0.5204730000000  0.5634140000000  0.5378740000000 1.0
C      1  0.4795270000000  0.4365860000000  0.4621260000000 1.0
C      1  0.5195020000000  0.5753640000000  0.5164620000000 1.0
C      1  0.4804980000000  0.4246360000000  0.4835380000000 1.0
C      1  0.4736410000000  0.5669030000000  0.5184500000000 1.0
C      1  0.5263590000000  0.4330970000000  0.4815500000000 1.0
C      1  0.4241640000000  0.4778940000000  0.5071460000000 1.0
C      1  0.5758360000000  0.5221060000000  0.4928540000000 1.0
C      1  0.4472900000000  0.5577030000000  0.5112720000000 1.0
C      1  0.5527100000000  0.4422970000000  0.4887280000000 1.0
C      1  0.5027600000000  0.5385710000000  0.4529060000000 1.0
C      1  0.4972400000000  0.4614290000000  0.5470940000000 1.0
C      1  0.5424550000000  0.4343320000000  0.4808470000000 1.0
C      1  0.4575450000000  0.5656680000000  0.5191530000000 1.0
C      1  0.5544010000000  0.4712410000000  0.5327770000000 1.0
C      1  0.4455990000000  0.5287590000000  0.4672230000000 1.0
C      1  0.5441480000000  0.4846250000000  0.4637430000000 1.0
C      1  0.4558520000000  0.5153750000000  0.5362570000000 1.0
C      1  0.4973190000000  0.4283880000000  0.5524220000000 1.0
C      1  0.5026810000000  0.5716120000000  0.4475780000000 1.0
C      1  0.5228750000000  0.4881300000000  0.5165150000000 1.0
C      1  0.4771250000000  0.5118700000000  0.4834850000000 1.0
C      1  0.5478390000000  0.4405320000000  0.4561660000000 1.0
C      1  0.4521610000000  0.5594680000000  0.5438340000000 1.0
C      1  0.5497510000000  0.4951310000000  0.5075070000000 1.0
C      1  0.4502490000000  0.5048690000000  0.4924930000000 1.0
C      1  0.5460070000000  0.5223220000000  0.4648660000000 1.0
C      1  0.4539930000000  0.4776780000000  0.5351340000000 1.0
C      1  0.5331670000000  0.4989820000000  0.4512160000000 1.0
C      1  0.4668330000000  0.5010180000000  0.5487840000000 1.0
C      1  0.4836400000000  0.4602420000000  0.5035180000000 1.0
C      1  0.5163600000000  0.5397580000000  0.4964820000000 1.0
C      1  0.4823850000000  0.5602740000000  0.4812480000000 1.0
C      1  0.5176150000000  0.4397260000000  0.5187520000000 1.0
C      1  0.5496170000000  0.5214700000000  0.5017940000000 1.0
C      1  0.4503830000000  0.4785300000000  0.4982060000000 1.0
C      1  0.5656730000000  0.4526320000000  0.5164940000000 1.0
C      1  0.4343270000000  0.5473680000000  0.4835060000000 1.0
C      1  0.5540570000000  0.4930940000000  0.5220010000000 1.0
C      1  0.4459430000000  0.5069060000000  0.4779990000000 1.0
C      1  0.5561770000000  0.4636200000000  0.4479530000000 1.0
C      1  0.4438230000000  0.5363800000000  0.5520470000000 1.0
C      1  0.5214760000000  0.5794310000000  0.4930310000000 1.0
C      1  0.4785240000000  0.4205690000000  0.5069690000000 1.0
C      1  0.4335970000000  0.5279690000000  0.5466070000000 1.0
C      1  0.5664030000000  0.4720310000000  0.4533930000000 1.0
C      1  0.5056160000000  0.5017680000000  0.5292810000000 1.0
C      1  0.4943840000000  0.4982320000000  0.4707190000000 1.0
C      1  0.5072430000000  0.5577770000000  0.5674420000000 1.0
C      1  0.4927570000000  0.4422230000000  0.4325580000000 1.0
C      1  0.5445590000000  0.5050190000000  0.5625380000000 1.0
C      1  0.4554410000000  0.4949810000000  0.4374620000000 1.0
C      1  0.4476840000000  0.5201400000000  0.5689360000000 1.0
C      1  0.5523160000000  0.4798600000000  0.4310640000000 1.0
C      1  0.5730650000000  0.4657180000000  0.4640930000000 1.0
C      1  0.4269350000000  0.5342820000000  0.5359070000000 1.0
C      1  0.4219200000000  0.5244140000000  0.5269240000000 1.0
C      1  0.5780800000000  0.4755860000000  0.4730760000000 1.0
C      1  0.4473750000000  0.4847730000000  0.5220810000000 1.0
C      1  0.5526250000000  0.5152270000000  0.4779190000000 1.0
C      1  0.5316940000000  0.4681160000000  0.4347320000000 1.0
C      1  0.4683060000000  0.5318840000000  0.5652680000000 1.0
C      1  0.5481730000000  0.5524610000000  0.5440860000000 1.0
C      1  0.4518270000000  0.4475390000000  0.4559140000000 1.0
C      1  0.5147530000000  0.5647310000000  0.5578190000000 1.0
C      1  0.4852470000000  0.4352690000000  0.4421810000000 1.0
C      1  0.4687220000000  0.5119040000000  0.5401260000000 1.0
C      1  0.5312780000000  0.4880960000000  0.4598740000000 1.0
C      1  0.5164490000000  0.4587080000000  0.4612750000000 1.0
C      1  0.4835510000000  0.5412920000000  0.5387250000000 1.0
C      1  0.4887580000000  0.4558670000000  0.4292480000000 1.0
C      1  0.5112420000000  0.5441330000000  0.5707520000000 1.0
C      1  0.4925920000000  0.4822240000000  0.5736980000000 1.0
C      1  0.5074080000000  0.5177760000000  0.4263020000000 1.0
C      1  0.4246060000000  0.4831540000000  0.4703240000000 1.0
C      1  0.5753940000000  0.5168460000000  0.5296760000000 1.0
C      1  0.5114560000000  0.4548680000000  0.4282970000000 1.0
C      1  0.4885440000000  0.5451320000000  0.5717030000000 1.0
C      1  0.4725400000000  0.4294820000000  0.4728200000000 1.0
C      1  0.5274600000000  0.5705180000000  0.5271800000000 1.0
C      1  0.5202280000000  0.5470750000000  0.5192110000000 1.0
C      1  0.4797720000000  0.4529250000000  0.4807890000000 1.0
C      1  0.4695260000000  0.5441080000000  0.5411810000000 1.0
C      1  0.5304740000000  0.4558920000000  0.4588190000000 1.0
C      1  0.5223780000000  0.5368310000000  0.5658240000000 1.0
C      1  0.4776220000000  0.4631690000000  0.4341760000000 1.0
C      1  0.5187470000000  0.5505640000000  0.4844740000000 1.0
C      1  0.4812530000000  0.4494360000000  0.5155260000000 1.0
C      1  0.5477360000000  0.4815310000000  0.5431950000000 1.0
C      1  0.4522640000000  0.5184690000000  0.4568050000000 1.0
C      1  0.5443570000000  0.4673070000000  0.4791800000000 1.0
C      1  0.4556430000000  0.5326930000000  0.5208200000000 1.0
C      1  0.4686590000000  0.5829470000000  0.4838600000000 1.0
C      1  0.5313410000000  0.4170530000000  0.5161400000000 1.0
C      1  0.5130840000000  0.5219670000000  0.4743500000000 1.0
C      1  0.4869160000000  0.4780330000000  0.5256500000000 1.0
C      1  0.4924340000000  0.5323480000000  0.4457030000000 1.0
C      1  0.5075660000000  0.4676520000000  0.5542970000000 1.0
C      1  0.5707210000000  0.4504190000000  0.5021800000000 1.0
C      1  0.4292790000000  0.5495810000000  0.4978200000000 1.0
C      1  0.5545270000000  0.5168790000000  0.5144060000000 1.0
C      1  0.4454730000000  0.4831210000000  0.4855940000000 1.0
C      1  0.4538210000000  0.5526410000000  0.4664100000000 1.0
C      1  0.5461790000000  0.4473590000000  0.5335900000000 1.0
C      1  0.4759920000000  0.4909310000000  0.4155680000000 1.0
C      1  0.5240080000000  0.5090690000000  0.5844320000000 1.0
C      1  0.5747890000000  0.5023350000000  0.5066830000000 1.0
C      1  0.4252110000000  0.4976650000000  0.4933170000000 1.0
C      1  0.4654120000000  0.4729580000000  0.4735290000000 1.0
C      1  0.5345880000000  0.5270420000000  0.5264710000000 1.0
C      1  0.4817630000000  0.4773200000000  0.4375150000000 1.0
C      1  0.5182370000000  0.5226800000000  0.5624850000000 1.0
C      1  0.4517260000000  0.5200570000000  0.5240970000000 1.0
C      1  0.5482740000000  0.4799430000000  0.4759030000000 1.0
C      1  0.5280940000000  0.5165300000000  0.5740800000000 1.0
C      1  0.4719060000000  0.4834700000000  0.4259200000000 1.0
C      1  0.5199740000000  0.4817230000000  0.4644840000000 1.0
C      1  0.4800260000000  0.5182770000000  0.5355160000000 1.0
C      1  0.4963920000000  0.4680180000000  0.5045780000000 1.0
C      1  0.5036080000000  0.5319820000000  0.4954220000000 1.0
C      1  0.5691540000000  0.5128990000000  0.5429810000000 1.0
C      1  0.4308460000000  0.4871010000000  0.4570190000000 1.0
C      1  0.5252760000000  0.5486940000000  0.4319620000000 1.0
C      1  0.4747240000000  0.4513060000000  0.5680380000000 1.0
C      1  0.4160400000000  0.4963040000000  0.4712940000000 1.0
C      1  0.5839600000000  0.5036960000000  0.5287060000000 1.0
C      1  0.4374090000000  0.4469850000000  0.4733650000000 1.0
C      1  0.5625910000000  0.5530150000000  0.5266350000000 1.0
C      1  0.4590240000000  0.4327850000000  0.4771100000000 1.0
C      1  0.5409760000000  0.5672150000000  0.5228900000000 1.0
C      1  0.4892140000000  0.4507680000000  0.5688030000000 1.0
C      1  0.5107860000000  0.5492320000000  0.4311970000000 1.0
C      1  0.5070050000000  0.4418380000000  0.4331790000000 1.0
C      1  0.4929950000000  0.5581620000000  0.5668210000000 1.0
C      1  0.4654950000000  0.5380970000000  0.5289380000000 1.0
C      1  0.5345050000000  0.4619030000000  0.4710620000000 1.0
C      1  0.5465840000000  0.5158530000000  0.5394520000000 1.0
C      1  0.4534160000000  0.4841470000000  0.4605480000000 1.0
C      1  0.5176070000000  0.4701170000000  0.4866470000000 1.0
C      1  0.4823930000000  0.5298830000000  0.5133530000000 1.0
C      1  0.4722120000000  0.5285620000000  0.5040550000000 1.0
C      1  0.5277880000000  0.4714380000000  0.4959450000000 1.0
C      1  0.5110710000000  0.5734720000000  0.4582310000000 1.0
C      1  0.4889290000000  0.4265280000000  0.5417690000000 1.0
C      1  0.5269940000000  0.4303830000000  0.4661220000000 1.0
C      1  0.4730060000000  0.5696170000000  0.5338780000000 1.0
C      1  0.5068070000000  0.4203630000000  0.5281160000000 1.0
C      1  0.4931930000000  0.5796370000000  0.4718840000000 1.0
C      1  0.5161830000000  0.4307740000000  0.5304750000000 1.0
C      1  0.4838170000000  0.5692260000000  0.4695250000000 1.0
C      1  0.4662250000000  0.4697980000000  0.5354250000000 1.0
C      1  0.5337750000000  0.5302020000000  0.4645750000000 1.0
C      1  0.5056360000000  0.4594840000000  0.5243590000000 1.0
C      1  0.4943640000000  0.5405160000000  0.4756410000000 1.0
C      1  0.5751570000000  0.5378620000000  0.5147670000000 1.0
C      1  0.4248430000000  0.4621380000000  0.4852330000000 1.0
C      1  0.5174880000000  0.4889890000000  0.4293200000000 1.0
C      1  0.4825120000000  0.5110110000000  0.5706800000000 1.0
C      1  0.5710930000000  0.4577530000000  0.5282250000000 1.0
C      1  0.4289070000000  0.5422470000000  0.4717750000000 1.0
C      1  0.5755580000000  0.5146560000000  0.4614700000000 1.0
C      1  0.4244420000000  0.4853440000000  0.5385300000000 1.0
C      1  0.4249020000000  0.4672040000000  0.4715440000000 1.0
C      1  0.5750980000000  0.5327960000000  0.5284560000000 1.0
C      1  0.4968000000000  0.5699660000000  0.5393440000000 1.0
C      1  0.5032000000000  0.4300340000000  0.4606560000000 1.0
C      1  0.5016200000000  0.5469520000000  0.4641200000000 1.0
C      1  0.4983800000000  0.4530480000000  0.5358800000000 1.0
C      1  0.5077500000000  0.4367730000000  0.5544640000000 1.0
C      1  0.4922500000000  0.5632270000000  0.4455360000000 1.0
C      1  0.5151700000000  0.5142400000000  0.5351960000000 1.0
C      1  0.4848300000000  0.4857600000000  0.4648040000000 1.0
C      1  0.5116580000000  0.5748540000000  0.4848660000000 1.0
C      1  0.4883420000000  0.4251460000000  0.5151340000000 1.0
C      1  0.4625610000000  0.4482670000000  0.4466400000000 1.0
C      1  0.5374390000000  0.5517330000000  0.5533600000000 1.0
C      1  0.5023600000000  0.5293480000000  0.4816290000000 1.0
C      1  0.4976400000000  0.4706520000000  0.5183710000000 1.0
C      1  0.5506590000000  0.5351310000000  0.4985950000000 1.0
C      1  0.4493410000000  0.4648690000000  0.5014050000000 1.0
C      1  0.5704940000000  0.4759100000000  0.5468980000000 1.0
C      1  0.4295060000000  0.5240900000000  0.4531020000000 1.0
C      1  0.4490690000000  0.4835660000000  0.5483850000000 1.0
C      1  0.5509310000000  0.5164340000000  0.4516150000000 1.0
C      1  0.5114730000000  0.4417800000000  0.5408980000000 1.0
C      1  0.4885270000000  0.5582200000000  0.4591020000000 1.0
C      1  0.4832590000000  0.4906010000000  0.5817070000000 1.0
C      1  0.5167410000000  0.5093990000000  0.4182930000000 1.0
C      1  0.5277260000000  0.4841570000000  0.5027600000000 1.0
C      1  0.4722740000000  0.5158430000000  0.4972400000000 1.0
C      1  0.5027850000000  0.5221210000000  0.5659580000000 1.0
C      1  0.4972150000000  0.4778790000000  0.4340420000000 1.0
C      1  0.4789120000000  0.5309480000000  0.5276520000000 1.0
C      1  0.5210880000000  0.4690520000000  0.4723480000000 1.0
C      1  0.4416920000000  0.4572870000000  0.4534920000000 1.0
C      1  0.5583080000000  0.5427130000000  0.5465080000000 1.0
C      1  0.4582110000000  0.4822590000000  0.4312610000000 1.0
C      1  0.5417890000000  0.5177410000000  0.5687390000000 1.0
C      1  0.5283770000000  0.4217840000000  0.5289430000000 1.0
C      1  0.4716230000000  0.5782160000000  0.4710570000000 1.0
C      1  0.4288920000000  0.5004260000000  0.4527340000000 1.0
C      1  0.5711080000000  0.4995740000000  0.5472660000000 1.0
C      1  0.5546620000000  0.4533580000000  0.5456430000000 1.0
C      1  0.4453380000000  0.5466420000000  0.4543570000000 1.0
C      1  0.5543280000000  0.4946570000000  0.4600550000000 1.0
C      1  0.4456720000000  0.5053430000000  0.5399450000000 1.0
C      1  0.5696200000000  0.5130690000000  0.4360710000000 1.0
C      1  0.4303800000000  0.4869310000000  0.5639290000000 1.0
C      1  0.4585570000000  0.5671290000000  0.5334200000000 1.0
C      1  0.5414430000000  0.4328710000000  0.4665800000000 1.0
C      1  0.4638490000000  0.5214120000000  0.4467930000000 1.0
C      1  0.5361510000000  0.4785880000000  0.5532070000000 1.0
C      1  0.4576300000000  0.5173560000000  0.4907930000000 1.0
C      1  0.5423700000000  0.4826440000000  0.5092070000000 1.0
C      1  0.5208400000000  0.4463320000000  0.4884040000000 1.0
C      1  0.4791600000000  0.5536680000000  0.5115960000000 1.0
C      1  0.4832900000000  0.5699600000000  0.5443270000000 1.0
C      1  0.5167100000000  0.4300400000000  0.4556730000000 1.0
C      1  0.5240100000000  0.5301010000000  0.5047040000000 1.0
C      1  0.4759900000000  0.4698990000000  0.4952960000000 1.0
C      1  0.5409470000000  0.4243740000000  0.5242050000000 1.0
C      1  0.4590530000000  0.5756260000000  0.4757950000000 1.0
C      1  0.5225850000000  0.4623040000000  0.5814380000000 1.0
C      1  0.4774150000000  0.5376960000000  0.4185620000000 1.0
C      1  0.5676960000000  0.5135120000000  0.4498930000000 1.0
C      1  0.4323040000000  0.4864880000000  0.5501070000000 1.0
C      1  0.5806940000000  0.5023600000000  0.4690800000000 1.0
C      1  0.4193060000000  0.4976400000000  0.5309200000000 1.0
C      1  0.4198490000000  0.5185600000000  0.4620910000000 1.0
C      1  0.5801510000000  0.4814400000000  0.5379090000000 1.0
C      1  0.5010710000000  0.5632310000000  0.5271050000000 1.0
C      1  0.4989290000000  0.4367690000000  0.4728950000000 1.0
C      1  0.5044230000000  0.5245980000000  0.5331880000000 1.0
C      1  0.4955770000000  0.4754020000000  0.4668120000000 1.0
C      1  0.5008620000000  0.5040950000000  0.5860520000000 1.0
C      1  0.4991380000000  0.4959050000000  0.4139480000000 1.0
C      1  0.5168200000000  0.5111760000000  0.4813630000000 1.0
C      1  0.4831800000000  0.4888240000000  0.5186370000000 1.0
C      1  0.5191780000000  0.4585720000000  0.5562100000000 1.0
C      1  0.4808220000000  0.5414280000000  0.4437900000000 1.0
END
