TITL C-616442-5639-91 6.71086066137038 1000000 -3700.04740030588 0 0 520 (C5) n - 1
REM
REM in /scratch/bkarasulu/Only-C240/Try3-MINAMP_3A
REM
REM
REM
REM
REM
REM ./C.cell (861c01eed278495e92615705e35c7759)
REM
REM compiler GCC version 9.2.1 20190827 (Red Hat 9.2.1-1)
REM options -cpp -mtune=generic -march=x86-64 -g -O0 -fpre-include=/usr/include/finclude/math-vector-fortran.h
REM seed 719582895 1562254300 631202053 -1526764653 -265421482 -1092069592 -1805598608 1182892677 -452918372 -843566089 1113922769 -1294528229 1469678091 -1604279397 -1497817391 -1681174462 705990226 -788546457 -1695350557 2061327691 228772694 -1128625080 -400402404 1056242741 424431459 1981456065 593587515 -924876371 1223840432 2126074122 644384913 -1885543135 -1534523358
REM
CELL 1.54180  100.00000  100.00000  100.00000   90.00000   90.00000   90.00000
LATT -1
SFAC C  
C      1  0.4759020000000  0.5317650000000  0.5311920000000 1.0
C      1  0.4758990000000  0.4801500000000  0.5398480000000 1.0
C      1  0.4759000000000  0.4559690000000  0.4934340000000 1.0
C      1  0.4759030000000  0.4926380000000  0.4560930000000 1.0
C      1  0.4759040000000  0.5394830000000  0.4794290000000 1.0
C      1  0.4781200000000  0.5689860000000  0.5496420000000 1.0
C      1  0.4781160000000  0.4741060000000  0.5809490000000 1.0
C      1  0.4781160000000  0.4150120000000  0.5003870000000 1.0
C      1  0.4781210000000  0.4733690000000  0.4192890000000 1.0
C      1  0.4781230000000  0.5685310000000  0.4497310000000 1.0
C      1  0.4608330000000  0.4434620000000  0.4594430000000 1.0
C      1  0.4608370000000  0.5211010000000  0.4336940000000 1.0
C      1  0.4608360000000  0.5695810000000  0.4995760000000 1.0
C      1  0.4608330000000  0.5219050000000  0.5660420000000 1.0
C      1  0.4608300000000  0.4439590000000  0.5412390000000 1.0
C      1  0.4686720000000  0.5382200000000  0.4652050000000 1.0
C      1  0.4686700000000  0.5449030000000  0.5255950000000 1.0
C      1  0.4686670000000  0.4895330000000  0.5506120000000 1.0
C      1  0.4686670000000  0.4486310000000  0.5056840000000 1.0
C      1  0.4686700000000  0.4787200000000  0.4528990000000 1.0
C      1  0.4265280000000  0.5413430000000  0.5085660000000 1.0
C      1  0.4265260000000  0.5046290000000  0.5419620000000 1.0
C      1  0.4265250000000  0.4615220000000  0.5173650000000 1.0
C      1  0.4265270000000  0.4715940000000  0.4687670000000 1.0
C      1  0.4265290000000  0.5209260000000  0.4633280000000 1.0
C      1  0.5038570000000  0.4688580000000  0.4482230000000 1.0
C      1  0.5038590000000  0.5396200000000  0.4543820000000 1.0
C      1  0.5038580000000  0.5556280000000  0.5235840000000 1.0
C      1  0.5038540000000  0.4947600000000  0.5601940000000 1.0
C      1  0.5038530000000  0.4411330000000  0.5136180000000 1.0
C      1  0.4856140000000  0.5504600000000  0.4989230000000 1.0
C      1  0.4856110000000  0.5166180000000  0.5476560000000 1.0
C      1  0.4856090000000  0.4598110000000  0.5305300000000 1.0
C      1  0.4856110000000  0.4585450000000  0.4712120000000 1.0
C      1  0.4856140000000  0.5145690000000  0.4516770000000 1.0
C      1  0.4562690000000  0.5018660000000  0.4883940000000 1.0
C      1  0.4562690000000  0.5116140000000  0.4981860000000 1.0
C      1  0.4562690000000  0.5053140000000  0.5104820000000 1.0
C      1  0.4562680000000  0.4916730000000  0.5082910000000 1.0
C      1  0.4562690000000  0.4895420000000  0.4946400000000 1.0
C      1  0.4949670000000  0.4503850000000  0.4320930000000 1.0
C      1  0.4949710000000  0.5492520000000  0.4318290000000 1.0
C      1  0.4949690000000  0.5800540000000  0.5257750000000 1.0
C      1  0.4949640000000  0.5002250000000  0.5841000000000 1.0
C      1  0.4949630000000  0.4200850000000  0.5262020000000 1.0
C      1  0.5161970000000  0.4736990000000  0.4423450000000 1.0
C      1  0.5161990000000  0.5467060000000  0.4571710000000 1.0
C      1  0.5161970000000  0.5551660000000  0.5311860000000 1.0
C      1  0.5161930000000  0.4873880000000  0.5621040000000 1.0
C      1  0.5161930000000  0.4370380000000  0.5071970000000 1.0
C      1  0.4910030000000  0.4311210000000  0.5487080000000 1.0
C      1  0.4910060000000  0.4323910000000  0.4495430000000 1.0
C      1  0.4910110000000  0.5270950000000  0.4201080000000 1.0
C      1  0.4910100000000  0.5843550000000  0.5010800000000 1.0
C      1  0.4910060000000  0.5250400000000  0.5805590000000 1.0
C      1  0.4851280000000  0.4375630000000  0.4778310000000 1.0
C      1  0.4851320000000  0.5017890000000  0.4337670000000 1.0
C      1  0.4851330000000  0.5635440000000  0.4812340000000 1.0
C      1  0.4851290000000  0.5374840000000  0.5546340000000 1.0
C      1  0.4851260000000  0.4596230000000  0.5525310000000 1.0
C      1  0.4493510000000  0.4580790000000  0.4437330000000 1.0
C      1  0.4493550000000  0.5405580000000  0.4427410000000 1.0
C      1  0.4493530000000  0.5669900000000  0.5208760000000 1.0
C      1  0.4493490000000  0.5008460000000  0.5701590000000 1.0
C      1  0.4493480000000  0.4335360000000  0.5224820000000 1.0
C      1  0.5345880000000  0.4512660000000  0.5650550000000 1.0
C      1  0.5345900000000  0.4230690000000  0.4737560000000 1.0
C      1  0.5345940000000  0.5011870000000  0.4187270000000 1.0
C      1  0.5345960000000  0.5776620000000  0.4760160000000 1.0
C      1  0.5345920000000  0.5468090000000  0.5664520000000 1.0
C      1  0.5566050000000  0.5565270000000  0.4857850000000 1.0
C      1  0.5566020000000  0.5309880000000  0.5493710000000 1.0
C      1  0.5565990000000  0.4626210000000  0.5447310000000 1.0
C      1  0.5566000000000  0.4459080000000  0.4782760000000 1.0
C      1  0.5566040000000  0.5039450000000  0.4418460000000 1.0
C      1  0.4635090000000  0.5534420000000  0.5367010000000 1.0
C      1  0.4635060000000  0.4816100000000  0.5621650000000 1.0
C      1  0.4635060000000  0.4351940000000  0.5017180000000 1.0
C      1  0.4635090000000  0.4783400000000  0.4388950000000 1.0
C      1  0.4635120000000  0.5514210000000  0.4605160000000 1.0
C      1  0.4743490000000  0.4961180000000  0.4708340000000 1.0
C      1  0.4743490000000  0.5265390000000  0.4872930000000 1.0
C      1  0.4743480000000  0.5202850000000  0.5213120000000 1.0
C      1  0.4743470000000  0.4860000000000  0.5258770000000 1.0
C      1  0.4743470000000  0.4710630000000  0.4946800000000 1.0
C      1  0.4811580000000  0.5631120000000  0.4371090000000 1.0
C      1  0.4811560000000  0.5793150000000  0.5405880000000 1.0
C      1  0.4811500000000  0.4859090000000  0.5879750000000 1.0
C      1  0.4811500000000  0.4119770000000  0.5137830000000 1.0
C      1  0.4811550000000  0.4596910000000  0.4205430000000 1.0
C      1  0.5409480000000  0.4331010000000  0.4662730000000 1.0
C      1  0.5409520000000  0.5114030000000  0.4259550000000 1.0
C      1  0.5409530000000  0.5739450000000  0.4879660000000 1.0
C      1  0.5409490000000  0.5342950000000  0.5666090000000 1.0
C      1  0.5409460000000  0.4472490000000  0.5532020000000 1.0
C      1  0.5080330000000  0.5065720000000  0.4466220000000 1.0
C      1  0.5080330000000  0.5527960000000  0.4897560000000 1.0
C      1  0.5080300000000  0.5260570000000  0.5470470000000 1.0
C      1  0.5080280000000  0.4633080000000  0.5393210000000 1.0
C      1  0.5080290000000  0.4512650000000  0.4772550000000 1.0
C      1  0.5315080000000  0.4695510000000  0.5396180000000 1.0
C      1  0.5315090000000  0.4529120000000  0.4832860000000 1.0
C      1  0.5315120000000  0.5013450000000  0.4500530000000 1.0
C      1  0.5315130000000  0.5479180000000  0.4858470000000 1.0
C      1  0.5315100000000  0.5282680000000  0.5412010000000 1.0
C      1  0.5163120000000  0.5752670000000  0.5142070000000 1.0
C      1  0.5163080000000  0.5097470000000  0.5759750000000 1.0
C      1  0.5163060000000  0.4307560000000  0.5327490000000 1.0
C      1  0.5163090000000  0.4474570000000  0.4442660000000 1.0
C      1  0.5163130000000  0.5367700000000  0.4328060000000 1.0
C      1  0.4384840000000  0.5567700000000  0.4752390000000 1.0
C      1  0.4384810000000  0.5410920000000  0.5463360000000 1.0
C      1  0.4384780000000  0.4686300000000  0.5533960000000 1.0
C      1  0.4384790000000  0.4395240000000  0.4866620000000 1.0
C      1  0.4384820000000  0.4939970000000  0.4383580000000 1.0
C      1  0.4513500000000  0.5516180000000  0.4532480000000 1.0
C      1  0.4513480000000  0.5604150000000  0.5346420000000 1.0
C      1  0.4513440000000  0.4857230000000  0.5681600000000 1.0
C      1  0.4513430000000  0.4307640000000  0.5074810000000 1.0
C      1  0.4513470000000  0.4714900000000  0.4364620000000 1.0
C      1  0.5522000000000  0.5656010000000  0.5119290000000 1.0
C      1  0.5521960000000  0.5089270000000  0.5660790000000 1.0
C      1  0.5521940000000  0.4399130000000  0.5289130000000 1.0
C      1  0.5521970000000  0.4539350000000  0.4517920000000 1.0
C      1  0.5522000000000  0.5316140000000  0.4412950000000 1.0
C      1  0.4698840000000  0.5178700000000  0.4230800000000 1.0
C      1  0.4698840000000  0.5786770000000  0.4932240000000 1.0
C      1  0.4698790000000  0.5307570000000  0.5727300000000 1.0
C      1  0.4698770000000  0.4403340000000  0.5517250000000 1.0
C      1  0.4698790000000  0.4323690000000  0.4592360000000 1.0
C      1  0.4071970000000  0.5088220000000  0.4917310000000 1.0
C      1  0.4071970000000  0.5105900000000  0.5058290000000 1.0
C      1  0.4071960000000  0.4977290000000  0.5118680000000 1.0
C      1  0.4071960000000  0.4880110000000  0.5015020000000 1.0
C      1  0.4071970000000  0.4948670000000  0.4890560000000 1.0
C      1  0.4729420000000  0.5613740000000  0.4605300000000 1.0
C      1  0.4729390000000  0.5565040000000  0.5461710000000 1.0
C      1  0.4729350000000  0.4735490000000  0.5680040000000 1.0
C      1  0.4729350000000  0.4271500000000  0.4958570000000 1.0
C      1  0.4729390000000  0.4814290000000  0.4294340000000 1.0
C      1  0.4188910000000  0.5123300000000  0.4710430000000 1.0
C      1  0.4188910000000  0.5313500000000  0.5027730000000 1.0
C      1  0.4188890000000  0.5070500000000  0.5306680000000 1.0
C      1  0.4188880000000  0.4730120000000  0.5161770000000 1.0
C      1  0.4188890000000  0.4762750000000  0.4793270000000 1.0
C      1  0.4962190000000  0.4862450000000  0.5883280000000 1.0
C      1  0.4962190000000  0.4117450000000  0.5142130000000 1.0
C      1  0.4962230000000  0.4592100000000  0.4204560000000 1.0
C      1  0.4962270000000  0.5630460000000  0.4366260000000 1.0
C      1  0.4962240000000  0.5797550000000  0.5403760000000 1.0
C      1  0.5108690000000  0.4877970000000  0.5375640000000 1.0
C      1  0.5108690000000  0.4605040000000  0.5000030000000 1.0
C      1  0.5108720000000  0.4877920000000  0.4624380000000 1.0
C      1  0.5108730000000  0.5319510000000  0.4767830000000 1.0
C      1  0.5108720000000  0.5319540000000  0.5232130000000 1.0
C      1  0.4624010000000  0.5241070000000  0.4966570000000 1.0
C      1  0.4624000000000  0.5106280000000  0.5218920000000 1.0
C      1  0.4623990000000  0.4824640000000  0.5168710000000 1.0
C      1  0.4624000000000  0.4785360000000  0.4885330000000 1.0
C      1  0.4624010000000  0.5042730000000  0.4760410000000 1.0
C      1  0.5178450000000  0.4470940000000  0.4977590000000 1.0
C      1  0.5178480000000  0.4857820000000  0.4489920000000 1.0
C      1  0.5178490000000  0.5441180000000  0.4707170000000 1.0
C      1  0.5178470000000  0.5414830000000  0.5329110000000 1.0
C      1  0.5178440000000  0.4815190000000  0.5496240000000 1.0
C      1  0.4521410000000  0.5181820000000  0.5288460000000 1.0
C      1  0.4521400000000  0.4781840000000  0.5262030000000 1.0
C      1  0.4521410000000  0.4683380000000  0.4873460000000 1.0
C      1  0.4521430000000  0.5022500000000  0.4659740000000 1.0
C      1  0.4521430000000  0.5330560000000  0.4916230000000 1.0
C      1  0.5005170000000  0.5203390000000  0.4135080000000 1.0
C      1  0.5005170000000  0.5885440000000  0.4926160000000 1.0
C      1  0.5005120000000  0.5343840000000  0.5819290000000 1.0
C      1  0.5005090000000  0.4327060000000  0.5580180000000 1.0
C      1  0.5005120000000  0.4240260000000  0.4539290000000 1.0
C      1  0.4259580000000  0.4527980000000  0.5062070000000 1.0
C      1  0.4259610000000  0.4795110000000  0.4570210000000 1.0
C      1  0.4259630000000  0.5345430000000  0.4672280000000 1.0
C      1  0.4259610000000  0.5418420000000  0.5227210000000 1.0
C      1  0.4259590000000  0.4913210000000  0.5468110000000 1.0
C      1  0.5658010000000  0.5061080000000  0.4522610000000 1.0
C      1  0.5658020000000  0.5472900000000  0.4910610000000 1.0
C      1  0.5657990000000  0.5231150000000  0.5422170000000 1.0
C      1  0.5657970000000  0.4669920000000  0.5350330000000 1.0
C      1  0.5657990000000  0.4564810000000  0.4794380000000 1.0
C      1  0.5013880000000  0.5707540000000  0.4471010000000 1.0
C      1  0.5013850000000  0.5721740000000  0.5509440000000 1.0
C      1  0.5013800000000  0.4738520000000  0.5843840000000 1.0
C      1  0.5013800000000  0.4116660000000  0.5012080000000 1.0
C      1  0.5013850000000  0.4715540000000  0.4163620000000 1.0
C      1  0.5525320000000  0.4521840000000  0.5187340000000 1.0
C      1  0.5525350000000  0.4674070000000  0.4603160000000 1.0
C      1  0.5525370000000  0.5276700000000  0.4567420000000 1.0
C      1  0.5525360000000  0.5496910000000  0.5129510000000 1.0
C      1  0.5525330000000  0.5030380000000  0.5512650000000 1.0
C      1  0.4744070000000  0.5518290000000  0.4881340000000 1.0
C      1  0.4744040000000  0.5273020000000  0.5456240000000 1.0
C      1  0.4744020000000  0.4650450000000  0.5400620000000 1.0
C      1  0.4744030000000  0.4510970000000  0.4791350000000 1.0
C      1  0.4744060000000  0.5047320000000  0.4470410000000 1.0
C      1  0.4137090000000  0.5176320000000  0.4832270000000 1.0
C      1  0.4137080000000  0.5214010000000  0.5115810000000 1.0
C      1  0.4137070000000  0.4955990000000  0.5239270000000 1.0
C      1  0.4137060000000  0.4758840000000  0.5032030000000 1.0
C      1  0.4137080000000  0.4895010000000  0.4780490000000 1.0
C      1  0.4497230000000  0.4885970000000  0.5350250000000 1.0
C      1  0.4497230000000  0.4631660000000  0.4999760000000 1.0
C      1  0.4497250000000  0.4886400000000  0.4649580000000 1.0
C      1  0.4497260000000  0.5298160000000  0.4783650000000 1.0
C      1  0.4497250000000  0.5297900000000  0.5216690000000 1.0
C      1  0.4873580000000  0.4866840000000  0.4329250000000 1.0
C      1  0.4873590000000  0.5596770000000  0.4666070000000 1.0
C      1  0.4873560000000  0.5501990000000  0.5464360000000 1.0
C      1  0.4873530000000  0.4713490000000  0.5620910000000 1.0
C      1  0.4873540000000  0.4320940000000  0.4919380000000 1.0
C      1  0.4801520000000  0.4955180000000  0.5582800000000 1.0
C      1  0.4801520000000  0.4431870000000  0.5137460000000 1.0
C      1  0.4801550000000  0.4693710000000  0.4502140000000 1.0
C      1  0.4801570000000  0.5378840000000  0.4554840000000 1.0
C      1  0.4801560000000  0.5540440000000  0.5222730000000 1.0
C      1  0.5378670000000  0.5575820000000  0.5416370000000 1.0
C      1  0.5378630000000  0.4781940000000  0.5676320000000 1.0
C      1  0.5378630000000  0.4289400000000  0.5001640000000 1.0
C      1  0.5378670000000  0.4778860000000  0.4324700000000 1.0
C      1  0.5378690000000  0.5573910000000  0.4581030000000 1.0
C      1  0.5258440000000  0.4599670000000  0.4963190000000 1.0
C      1  0.5258460000000  0.4911300000000  0.4607900000000 1.0
C      1  0.5258480000000  0.5345500000000  0.4794490000000 1.0
C      1  0.5258460000000  0.5302220000000  0.5265100000000 1.0
C      1  0.5258440000000  0.4841270000000  0.5369360000000 1.0
C      1  0.5323950000000  0.4877870000000  0.4242920000000 1.0
C      1  0.5323970000000  0.5682280000000  0.4649920000000 1.0
C      1  0.5323940000000  0.5543780000000  0.5540730000000 1.0
C      1  0.5323900000000  0.4653780000000  0.5684280000000 1.0
C      1  0.5323900000000  0.4242220000000  0.4882200000000 1.0
C      1  0.5389200000000  0.4351840000000  0.5316130000000 1.0
C      1  0.5389230000000  0.4499050000000  0.4481280000000 1.0
C      1  0.5389270000000  0.5338530000000  0.4363290000000 1.0
C      1  0.5389260000000  0.5710160000000  0.5125240000000 1.0
C      1  0.5389220000000  0.5100350000000  0.5714120000000 1.0
C      1  0.4903410000000  0.4542910000000  0.4965520000000 1.0
C      1  0.4903440000000  0.4891550000000  0.4554620000000 1.0
C      1  0.4903450000000  0.5390070000000  0.4759220000000 1.0
C      1  0.4903430000000  0.5349540000000  0.5296570000000 1.0
C      1  0.4903410000000  0.4825960000000  0.5424070000000 1.0
C      1  0.4803110000000  0.5003690000000  0.5866460000000 1.0
C      1  0.4803100000000  0.4177090000000  0.5271240000000 1.0
C      1  0.4803140000000  0.4487740000000  0.4301170000000 1.0
C      1  0.4803180000000  0.5506330000000  0.4296850000000 1.0
C      1  0.4803160000000  0.5825200000000  0.5264250000000 1.0
C      1  0.5601100000000  0.4430200000000  0.4549360000000 1.0
C      1  0.5601140000000  0.5252500000000  0.4318870000000 1.0
C      1  0.5601140000000  0.5725830000000  0.5029700000000 1.0
C      1  0.5601100000000  0.5196050000000  0.5699510000000 1.0
C      1  0.5601080000000  0.4395310000000  0.5402650000000 1.0
C      1  0.5479890000000  0.4395560000000  0.4981550000000 1.0
C      1  0.5479930000000  0.4830770000000  0.4419470000000 1.0
C      1  0.5479940000000  0.5499820000000  0.4659690000000 1.0
C      1  0.5479920000000  0.5478110000000  0.5370220000000 1.0
C      1  0.5479890000000  0.4795640000000  0.5569140000000 1.0
C      1  0.4595380000000  0.4776190000000  0.4655020000000 1.0
C      1  0.4595400000000  0.5258930000000  0.4680520000000 1.0
C      1  0.4595390000000  0.5383860000000  0.5147510000000 1.0
C      1  0.4595360000000  0.4978330000000  0.5410630000000 1.0
C      1  0.4595360000000  0.4602770000000  0.5106260000000 1.0
C      1  0.5283310000000  0.4290740000000  0.5246520000000 1.0
C      1  0.5283340000000  0.4546370000000  0.4401650000000 1.0
C      1  0.5283380000000  0.5428880000000  0.4383690000000 1.0
C      1  0.5283360000000  0.5718680000000  0.5217460000000 1.0
C      1  0.5283320000000  0.5015270000000  0.5750720000000 1.0
C      1  0.4611420000000  0.4513900000000  0.4714740000000 1.0
C      1  0.4611450000000  0.5121080000000  0.4449520000000 1.0
C      1  0.4611450000000  0.5560950000000  0.4945030000000 1.0
C      1  0.4611420000000  0.5225630000000  0.5516490000000 1.0
C      1  0.4611400000000  0.4578510000000  0.5374160000000 1.0
C      1  0.5294960000000  0.4585530000000  0.4691600000000 1.0
C      1  0.5294990000000  0.5165230000000  0.4510530000000 1.0
C      1  0.5294990000000  0.5516580000000  0.5005900000000 1.0
C      1  0.5294960000000  0.5154020000000  0.5493130000000 1.0
C      1  0.5294940000000  0.4578600000000  0.5298880000000 1.0
C      1  0.4707000000000  0.5104980000000  0.5837610000000 1.0
C      1  0.4706980000000  0.4235820000000  0.5358660000000 1.0
C      1  0.4707010000000  0.4422750000000  0.4384040000000 1.0
C      1  0.4707060000000  0.5407430000000  0.4260640000000 1.0
C      1  0.4707050000000  0.5829070000000  0.5159000000000 1.0
C      1  0.4400160000000  0.4797820000000  0.5617620000000 1.0
C      1  0.4400160000000  0.4350130000000  0.4998540000000 1.0
C      1  0.4400200000000  0.4800560000000  0.4381450000000 1.0
C      1  0.4400220000000  0.5526650000000  0.4619150000000 1.0
C      1  0.4400200000000  0.5524950000000  0.5383150000000 1.0
C      1  0.4370360000000  0.5176880000000  0.4528960000000 1.0
C      1  0.4370350000000  0.5502640000000  0.5022630000000 1.0
C      1  0.4370320000000  0.5133800000000  0.5485000000000 1.0
C      1  0.4370310000000  0.4580090000000  0.5277090000000 1.0
C      1  0.4370330000000  0.4606710000000  0.4686230000000 1.0
C      1  0.5202240000000  0.5039130000000  0.4168830000000 1.0
C      1  0.5202250000000  0.5802580000000  0.4780380000000 1.0
C      1  0.5202210000000  0.5456880000000  0.5695450000000 1.0
C      1  0.5202170000000  0.4479770000000  0.5649440000000 1.0
C      1  0.5202190000000  0.4221590000000  0.4705930000000 1.0
C      1  0.5009190000000  0.4772540000000  0.5341650000000 1.0
C      1  0.5009200000000  0.4604780000000  0.4889250000000 1.0
C      1  0.5009220000000  0.4983200000000  0.4589900000000 1.0
C      1  0.5009230000000  0.5384840000000  0.4857300000000 1.0
C      1  0.5009210000000  0.5254640000000  0.5321910000000 1.0
C      1  0.4328610000000  0.5507360000000  0.4861380000000 1.0
C      1  0.4328590000000  0.5288620000000  0.5439650000000 1.0
C      1  0.4328560000000  0.4671050000000  0.5410310000000 1.0
C      1  0.4328580000000  0.4508120000000  0.4813900000000 1.0
C      1  0.4328610000000  0.5024980000000  0.4474640000000 1.0
C      1  0.5840600000000  0.4801740000000  0.5255930000000 1.0
C      1  0.5840610000000  0.4695330000000  0.4890580000000 1.0
C      1  0.5840630000000  0.5009920000000  0.4676480000000 1.0
C      1  0.5840630000000  0.5310750000000  0.4909520000000 1.0
C      1  0.5840620000000  0.5182090000000  0.5267630000000 1.0
C      1  0.4915700000000  0.5496190000000  0.5307910000000 1.0
C      1  0.4915660000000  0.4860490000000  0.5567050000000 1.0
C      1  0.4915660000000  0.4417600000000  0.5042540000000 1.0
C      1  0.4915690000000  0.4779570000000  0.4459240000000 1.0
C      1  0.4915720000000  0.5446170000000  0.4623250000000 1.0
C      1  0.5897500000000  0.4933640000000  0.5241830000000 1.0
C      1  0.5897500000000  0.4749500000000  0.5011670000000 1.0
C      1  0.5897510000000  0.4911500000000  0.4765420000000 1.0
C      1  0.5897520000000  0.5195750000000  0.4843390000000 1.0
C      1  0.5897510000000  0.5209440000000  0.5137830000000 1.0
C      1  0.5184000000000  0.5555930000000  0.4793420000000 1.0
C      1  0.5183970000000  0.5368260000000  0.5464890000000 1.0
C      1  0.5183940000000  0.4671660000000  0.5493910000000 1.0
C      1  0.5183950000000  0.4428810000000  0.4840360000000 1.0
C      1  0.5183980000000  0.4975310000000  0.4407440000000 1.0
C      1  0.5638510000000  0.5040150000000  0.5118860000000 1.0
C      1  0.5638500000000  0.4899370000000  0.5074950000000 1.0
C      1  0.5638510000000  0.4897620000000  0.4927490000000 1.0
C      1  0.5638520000000  0.5037320000000  0.4880260000000 1.0
C      1  0.5638520000000  0.5125410000000  0.4998530000000 1.0
C      1  0.4833460000000  0.5279810000000  0.5000280000000 1.0
C      1  0.4833440000000  0.5086200000000  0.5266190000000 1.0
C      1  0.4833430000000  0.4773470000000  0.5164230000000 1.0
C      1  0.4833440000000  0.4773810000000  0.4835300000000 1.0
C      1  0.4833460000000  0.5086740000000  0.4733970000000 1.0
C      1  0.4768850000000  0.4496110000000  0.5582780000000 1.0
C      1  0.4768870000000  0.4290030000000  0.4700850000000 1.0
C      1  0.4768910000000  0.5065120000000  0.4232320000000 1.0
C      1  0.4768920000000  0.5750230000000  0.4824690000000 1.0
C      1  0.4768880000000  0.5398560000000  0.5659320000000 1.0
C      1  0.5449550000000  0.5509730000000  0.4797610000000 1.0
C      1  0.5449530000000  0.5350000000000  0.5422270000000 1.0
C      1  0.5449500000000  0.4706550000000  0.5463390000000 1.0
C      1  0.5449510000000  0.4468610000000  0.4864140000000 1.0
C      1  0.5449540000000  0.4965010000000  0.4452660000000 1.0
C      1  0.5565760000000  0.5082930000000  0.5238580000000 1.0
C      1  0.5565750000000  0.4798730000000  0.5152630000000 1.0
C      1  0.5565760000000  0.4792650000000  0.4855770000000 1.0
C      1  0.5565770000000  0.5073090000000  0.4758260000000 1.0
C      1  0.5565770000000  0.5252500000000  0.4994850000000 1.0
C      1  0.5545150000000  0.4491750000000  0.5485250000000 1.0
C      1  0.5545170000000  0.4381440000000  0.4666610000000 1.0
C      1  0.5545210000000  0.5125930000000  0.4308720000000 1.0
C      1  0.5545210000000  0.5696360000000  0.4906180000000 1.0
C      1  0.5545170000000  0.5304410000000  0.5633320000000 1.0
C      1  0.5380840000000  0.5453100000000  0.5107100000000 1.0
C      1  0.5380810000000  0.5038160000000  0.5464050000000 1.0
C      1  0.5380800000000  0.4570460000000  0.5179710000000 1.0
C      1  0.5380820000000  0.4696350000000  0.4647040000000 1.0
C      1  0.5380850000000  0.5241850000000  0.4602160000000 1.0
C      1  0.5736710000000  0.5382690000000  0.5114940000000 1.0
C      1  0.5736690000000  0.5008950000000  0.5399530000000 1.0
C      1  0.5736680000000  0.4622800000000  0.5132010000000 1.0
C      1  0.5736700000000  0.4757890000000  0.4682100000000 1.0
C      1  0.5736720000000  0.5227530000000  0.4671540000000 1.0
C      1  0.4251310000000  0.5392210000000  0.4808580000000 1.0
C      1  0.4251290000000  0.5303250000000  0.5313820000000 1.0
C      1  0.4251270000000  0.4795250000000  0.5385340000000 1.0
C      1  0.4251270000000  0.4570250000000  0.4924300000000 1.0
C      1  0.4251300000000  0.4939190000000  0.4567840000000 1.0
C      1  0.4828700000000  0.5276510000000  0.4464750000000 1.0
C      1  0.4828690000000  0.5594500000000  0.5097570000000 1.0
C      1  0.4828660000000  0.5090920000000  0.5595540000000 1.0
C      1  0.4828640000000  0.4461700000000  0.5270490000000 1.0
C      1  0.4828670000000  0.4576410000000  0.4571620000000 1.0
C      1  0.5345880000000  0.5320440000000  0.5153840000000 1.0
C      1  0.5345860000000  0.4952710000000  0.5352310000000 1.0
C      1  0.5345860000000  0.4650320000000  0.5063920000000 1.0
C      1  0.5345880000000  0.4831150000000  0.4687200000000 1.0
C      1  0.5345890000000  0.5245310000000  0.4742780000000 1.0
C      1  0.4936380000000  0.5262640000000  0.4353910000000 1.0
C      1  0.4936370000000  0.5695630000000  0.5050130000000 1.0
C      1  0.4936330000000  0.5167280000000  0.5677070000000 1.0
C      1  0.4936310000000  0.4407760000000  0.5368320000000 1.0
C      1  0.4936340000000  0.4466700000000  0.4550560000000 1.0
C      1  0.5395260000000  0.5155970000000  0.4834620000000 1.0
C      1  0.5395250000000  0.5205480000000  0.5097250000000 1.0
C      1  0.5395240000000  0.4971010000000  0.5225500000000 1.0
C      1  0.5395240000000  0.4776580000000  0.5042130000000 1.0
C      1  0.5395250000000  0.4890890000000  0.4800550000000 1.0
C      1  0.5747930000000  0.4775990000000  0.5362260000000 1.0
C      1  0.5747930000000  0.4586250000000  0.4898940000000 1.0
C      1  0.5747960000000  0.4968260000000  0.4575320000000 1.0
C      1  0.5747970000000  0.5394090000000  0.4838620000000 1.0
C      1  0.5747950000000  0.5275260000000  0.5324980000000 1.0
C      1  0.5188870000000  0.4277540000000  0.4839090000000 1.0
C      1  0.5188910000000  0.4929780000000  0.4263190000000 1.0
C      1  0.5188930000000  0.5679050000000  0.4705540000000 1.0
C      1  0.5188900000000  0.5489890000000  0.5554830000000 1.0
C      1  0.5188860000000  0.4623700000000  0.5637380000000 1.0
C      1  0.5060830000000  0.5017470000000  0.5439310000000 1.0
C      1  0.5060820000000  0.4587600000000  0.5152370000000 1.0
C      1  0.5060840000000  0.4727640000000  0.4654870000000 1.0
C      1  0.5060860000000  0.5244080000000  0.4634330000000 1.0
C      1  0.5060850000000  0.5423200000000  0.5119130000000 1.0
C      1  0.5149540000000  0.4591200000000  0.5269630000000 1.0
C      1  0.5149560000000  0.4617240000000  0.4694540000000 1.0
C      1  0.5149580000000  0.5172230000000  0.4541590000000 1.0
C      1  0.5149580000000  0.5489200000000  0.5022160000000 1.0
C      1  0.5149550000000  0.5130100000000  0.5472110000000 1.0
C      1  0.4768390000000  0.4322810000000  0.4467810000000 1.0
C      1  0.4768440000000  0.5296870000000  0.4191480000000 1.0
C      1  0.4768430000000  0.5860680000000  0.5032480000000 1.0
C      1  0.4768380000000  0.5235070000000  0.5828580000000 1.0
C      1  0.4768360000000  0.4284610000000  0.5479600000000 1.0
C      1  0.4915440000000  0.4681540000000  0.5766400000000 1.0
C      1  0.4915450000000  0.4172700000000  0.4933950000000 1.0
C      1  0.4915490000000  0.4807170000000  0.4192780000000 1.0
C      1  0.4915520000000  0.5708130000000  0.4567150000000 1.0
C      1  0.4915490000000  0.5630480000000  0.5539710000000 1.0
C      1  0.5949710000000  0.4879480000000  0.5004240000000 1.0
C      1  0.5949720000000  0.4958730000000  0.4886750000000 1.0
C      1  0.5949720000000  0.5094960000000  0.4925810000000 1.0
C      1  0.5949720000000  0.5099910000000  0.5067440000000 1.0
C      1  0.5949710000000  0.4966730000000  0.5115910000000 1.0
C      1  0.5322830000000  0.4433800000000  0.4598550000000 1.0
C      1  0.5322870000000  0.5206830000000  0.4337480000000 1.0
C      1  0.5322870000000  0.5694010000000  0.4992000000000 1.0
C      1  0.5322830000000  0.5222070000000  0.5657590000000 1.0
C      1  0.5322810000000  0.4443220000000  0.5414430000000 1.0
C      1  0.4942860000000  0.4693790000000  0.5217200000000 1.0
C      1  0.4942870000000  0.4698800000000  0.4775890000000 1.0
C      1  0.4942890000000  0.5120060000000  0.4644290000000 1.0
C      1  0.4942890000000  0.5375400000000  0.5004260000000 1.0
C      1  0.4942870000000  0.5111950000000  0.5358340000000 1.0
C      1  0.5699030000000  0.4880750000000  0.5445850000000 1.0
C      1  0.5699030000000  0.4539120000000  0.5024400000000 1.0
C      1  0.5699060000000  0.4834380000000  0.4569260000000 1.0
C      1  0.5699070000000  0.5358480000000  0.4709420000000 1.0
C      1  0.5699060000000  0.5387140000000  0.5251180000000 1.0
C      1  0.5434290000000  0.5030210000000  0.4781370000000 1.0
C      1  0.5434290000000  0.5217270000000  0.4961200000000 1.0
C      1  0.5434280000000  0.5104040000000  0.5194670000000 1.0
C      1  0.5434270000000  0.4847010000000  0.5159130000000 1.0
C      1  0.5434280000000  0.4801380000000  0.4903700000000 1.0
C      1  0.5276240000000  0.4881740000000  0.5706400000000 1.0
C      1  0.5276230000000  0.4291630000000  0.5105830000000 1.0
C      1  0.5276270000000  0.4680450000000  0.4359020000000 1.0
C      1  0.5276300000000  0.5510860000000  0.4498030000000 1.0
C      1  0.5276280000000  0.5635260000000  0.5330760000000 1.0
C      1  0.5199550000000  0.5230890000000  0.5739430000000 1.0
C      1  0.5199530000000  0.4368110000000  0.5448100000000 1.0
C      1  0.5199560000000  0.4378570000000  0.4537510000000 1.0
C      1  0.5199600000000  0.5247820000000  0.4266080000000 1.0
C      1  0.5199600000000  0.5774580000000  0.5008900000000 1.0
C      1  0.4323480000000  0.4412480000000  0.5100220000000 1.0
C      1  0.4323510000000  0.4723130000000  0.4472160000000 1.0
C      1  0.4323540000000  0.5416440000000  0.4573530000000 1.0
C      1  0.4323520000000  0.5534280000000  0.5264230000000 1.0
C      1  0.4323480000000  0.4913800000000  0.5589750000000 1.0
C      1  0.5578340000000  0.4467130000000  0.5059870000000 1.0
C      1  0.5578370000000  0.4778400000000  0.4511750000000 1.0
C      1  0.5578390000000  0.5395880000000  0.4638400000000 1.0
C      1  0.5578370000000  0.5466240000000  0.5264790000000 1.0
C      1  0.5578340000000  0.4892240000000  0.5525280000000 1.0
C      1  0.4588520000000  0.5741860000000  0.5130740000000 1.0
C      1  0.4588470000000  0.5104910000000  0.5745930000000 1.0
C      1  0.4588450000000  0.4323000000000  0.5330250000000 1.0
C      1  0.4588490000000  0.4476700000000  0.4458160000000 1.0
C      1  0.4588530000000  0.5353610000000  0.4334850000000 1.0
C      1  0.5841520000000  0.4778620000000  0.4771060000000 1.0
C      1  0.5841540000000  0.5149330000000  0.4718760000000 1.0
C      1  0.5841540000000  0.5313620000000  0.5055160000000 1.0
C      1  0.5841520000000  0.5044460000000  0.5315370000000 1.0
C      1  0.5841510000000  0.4713810000000  0.5139780000000 1.0
C      1  0.4384520000000  0.5041090000000  0.5615920000000 1.0
C      1  0.4384510000000  0.4426920000000  0.5229370000000 1.0
C      1  0.4384530000000  0.4604760000000  0.4525820000000 1.0
C      1  0.4384560000000  0.5328840000000  0.4477540000000 1.0
C      1  0.4384550000000  0.5598500000000  0.5151260000000 1.0
C      1  0.4527180000000  0.5147940000000  0.4572430000000 1.0
C      1  0.4527180000000  0.5452350000000  0.5008540000000 1.0
C      1  0.4527150000000  0.5131660000000  0.5432830000000 1.0
C      1  0.4527140000000  0.4629040000000  0.5258940000000 1.0
C      1  0.4527160000000  0.4639100000000  0.4727190000000 1.0
C      1  0.5133330000000  0.4378920000000  0.5575650000000 1.0
C      1  0.5133350000000  0.4260600000000  0.4587210000000 1.0
C      1  0.5133400000000  0.5164100000000  0.4169240000000 1.0
C      1  0.5133410000000  0.5840810000000  0.4899350000000 1.0
C      1  0.5133360000000  0.5355540000000  0.5768560000000 1.0
C      1  0.5617400000000  0.5407060000000  0.5033980000000 1.0
C      1  0.5617380000000  0.5093480000000  0.5397670000000 1.0
C      1  0.5617360000000  0.4650680000000  0.5211830000000 1.0
C      1  0.5617380000000  0.4690600000000  0.4733270000000 1.0
C      1  0.5617400000000  0.5158070000000  0.4623350000000 1.0
C      1  0.4713340000000  0.5002080000000  0.5294190000000 1.0
C      1  0.4713330000000  0.4720850000000  0.5092870000000 1.0
C      1  0.4713350000000  0.4825410000000  0.4763200000000 1.0
C      1  0.4713360000000  0.5171260000000  0.4760770000000 1.0
C      1  0.4713360000000  0.5280450000000  0.5088940000000 1.0
C      1  0.4185650000000  0.4693030000000  0.4915300000000 1.0
C      1  0.4185660000000  0.4985700000000  0.4681830000000 1.0
C      1  0.4185670000000  0.5298180000000  0.4888030000000 1.0
C      1  0.4185660000000  0.5198630000000  0.5248930000000 1.0
C      1  0.4185640000000  0.4824630000000  0.5265780000000 1.0
C      1  0.5025120000000  0.4533100000000  0.4449390000000 1.0
C      1  0.5025150000000  0.5379380000000  0.4385800000000 1.0
C      1  0.5025140000000  0.5701370000000  0.5171020000000 1.0
C      1  0.5025100000000  0.5054090000000  0.5719890000000 1.0
C      1  0.5025080000000  0.4332060000000  0.5273900000000 1.0
C      1  0.4957350000000  0.5261660000000  0.5555390000000 1.0
C      1  0.4957320000000  0.4552650000000  0.5420480000000 1.0
C      1  0.4957340000000  0.4461860000000  0.4704480000000 1.0
C      1  0.4957380000000  0.5114770000000  0.4396880000000 1.0
C      1  0.4957380000000  0.5609070000000  0.4922770000000 1.0
END
