TITL C-616442-5639-18 14.8617565738115 1000000 -1639.43094046218 0 0 240 (C1) n - 1
REM
REM in /scratch/bkarasulu/Only-C240/Try3-MINAMP_3A
REM
REM
REM
REM
REM
REM ./C.cell (861c01eed278495e92615705e35c7759)
REM
REM compiler GCC version 9.2.1 20190827 (Red Hat 9.2.1-1)
REM options -cpp -mtune=generic -march=x86-64 -g -O0 -fpre-include=/usr/include/finclude/math-vector-fortran.h
REM seed 1293163347 1090254209 -1107920855 -646503078 -784626787 349575684 324509798 -717446033 341398787 -342258680 -1103217021 448498111 -635168789 1985616666 -1853105134 -1009401417 -1389941371 -1951848430 -1802124476 818451226 -402881408 -520448098 624471131 397552919 -1518474694 -1944178043 -2145835941 936437387 -578909161 -1191200975 -76865460 2123736873 -394998353
REM
CELL 1.54180  100.00000  100.00000  100.00000   90.00000   90.00000   90.00000
LATT -1
SFAC C  
C      1  0.4525650000000  0.4926560000000  0.5508780000000 1.0
C      1  0.4523190000000  0.4987020000000  0.4555100000000 1.0
C      1  0.5263440000000  0.4438970000000  0.4511470000000 1.0
C      1  0.5224580000000  0.4479740000000  0.5525310000000 1.0
C      1  0.5086410000000  0.5615170000000  0.4649100000000 1.0
C      1  0.4948240000000  0.5695850000000  0.5487740000000 1.0
C      1  0.4896780000000  0.5785850000000  0.5258310000000 1.0
C      1  0.4971060000000  0.5805670000000  0.4778150000000 1.0
C      1  0.4641990000000  0.5164080000000  0.4308500000000 1.0
C      1  0.4593690000000  0.5099100000000  0.5711650000000 1.0
C      1  0.4815030000000  0.4985360000000  0.4346340000000 1.0
C      1  0.4721120000000  0.4912470000000  0.5804360000000 1.0
C      1  0.4919540000000  0.4409750000000  0.4459060000000 1.0
C      1  0.4902060000000  0.4391300000000  0.5600600000000 1.0
C      1  0.4727430000000  0.5569660000000  0.5321180000000 1.0
C      1  0.4775210000000  0.5641830000000  0.4620000000000 1.0
C      1  0.4834640000000  0.4986100000000  0.5828280000000 1.0
C      1  0.4939050000000  0.5042410000000  0.4331930000000 1.0
C      1  0.4491830000000  0.5557470000000  0.5051550000000 1.0
C      1  0.4549210000000  0.5532160000000  0.4848010000000 1.0
C      1  0.4956650000000  0.4947640000000  0.5805220000000 1.0
C      1  0.5048230000000  0.4975100000000  0.4333860000000 1.0
C      1  0.4879090000000  0.5574890000000  0.5492500000000 1.0
C      1  0.4988740000000  0.5545000000000  0.4568170000000 1.0
C      1  0.5295560000000  0.4950880000000  0.5607920000000 1.0
C      1  0.5369090000000  0.4889890000000  0.4404230000000 1.0
C      1  0.5762410000000  0.5060570000000  0.5246100000000 1.0
C      1  0.5767890000000  0.5030090000000  0.4777760000000 1.0
C      1  0.4593050000000  0.5065220000000  0.4668460000000 1.0
C      1  0.4657660000000  0.5009190000000  0.5457510000000 1.0
C      1  0.5732130000000  0.5139140000000  0.5361150000000 1.0
C      1  0.5713390000000  0.5110140000000  0.4675140000000 1.0
C      1  0.4613770000000  0.4401580000000  0.5146440000000 1.0
C      1  0.4609240000000  0.4415220000000  0.4896810000000 1.0
C      1  0.4752870000000  0.4726150000000  0.5253550000000 1.0
C      1  0.4733840000000  0.4746400000000  0.4808830000000 1.0
C      1  0.4485390000000  0.4465800000000  0.5148620000000 1.0
C      1  0.4480520000000  0.4478990000000  0.4902860000000 1.0
C      1  0.5212840000000  0.4241740000000  0.5238910000000 1.0
C      1  0.5164870000000  0.4147750000000  0.4738170000000 1.0
C      1  0.4278380000000  0.5151710000000  0.5177850000000 1.0
C      1  0.4260680000000  0.5136460000000  0.4883760000000 1.0
C      1  0.5253620000000  0.4337610000000  0.4589500000000 1.0
C      1  0.5218170000000  0.4369590000000  0.5454150000000 1.0
C      1  0.4886160000000  0.4396870000000  0.4903210000000 1.0
C      1  0.4909710000000  0.4402010000000  0.5113250000000 1.0
C      1  0.5127700000000  0.5104810000000  0.5344900000000 1.0
C      1  0.5068660000000  0.5088990000000  0.4771310000000 1.0
C      1  0.5687050000000  0.4946860000000  0.5222630000000 1.0
C      1  0.5716760000000  0.4904410000000  0.4803210000000 1.0
C      1  0.4643650000000  0.5621850000000  0.5213140000000 1.0
C      1  0.4705940000000  0.5683950000000  0.4738820000000 1.0
C      1  0.5842520000000  0.5085480000000  0.4883060000000 1.0
C      1  0.5834390000000  0.5103390000000  0.5133440000000 1.0
C      1  0.5365520000000  0.4760060000000  0.5498480000000 1.0
C      1  0.5476940000000  0.4686970000000  0.4452150000000 1.0
C      1  0.5179310000000  0.5174580000000  0.4795590000000 1.0
C      1  0.5212360000000  0.5193250000000  0.5275830000000 1.0
C      1  0.5485010000000  0.5371530000000  0.5420150000000 1.0
C      1  0.5457540000000  0.5344000000000  0.4600510000000 1.0
C      1  0.5050240000000  0.4837580000000  0.4337350000000 1.0
C      1  0.4981780000000  0.4816490000000  0.5773010000000 1.0
C      1  0.4881860000000  0.5794020000000  0.4884240000000 1.0
C      1  0.4851070000000  0.5762290000000  0.5133600000000 1.0
C      1  0.4930830000000  0.5416610000000  0.4562760000000 1.0
C      1  0.4944950000000  0.5436400000000  0.5460320000000 1.0
C      1  0.4583180000000  0.4514810000000  0.5350530000000 1.0
C      1  0.4570770000000  0.4542790000000  0.4699600000000 1.0
C      1  0.5118340000000  0.4710510000000  0.4355520000000 1.0
C      1  0.5067910000000  0.4713500000000  0.5715280000000 1.0
C      1  0.4682930000000  0.4439590000000  0.5268790000000 1.0
C      1  0.4672090000000  0.4460940000000  0.4775280000000 1.0
C      1  0.5651380000000  0.5191620000000  0.5436850000000 1.0
C      1  0.5636660000000  0.5168450000000  0.4598770000000 1.0
C      1  0.5045510000000  0.5096130000000  0.5438880000000 1.0
C      1  0.4970000000000  0.5089450000000  0.4691950000000 1.0
C      1  0.5002600000000  0.5729510000000  0.4675420000000 1.0
C      1  0.4937200000000  0.5769840000000  0.5378440000000 1.0
C      1  0.4737190000000  0.4776470000000  0.5757930000000 1.0
C      1  0.4805430000000  0.4844260000000  0.4372660000000 1.0
C      1  0.4652390000000  0.4600420000000  0.5446470000000 1.0
C      1  0.4641870000000  0.4636710000000  0.4611040000000 1.0
C      1  0.4810580000000  0.4504960000000  0.5299150000000 1.0
C      1  0.4799960000000  0.4526000000000  0.4746400000000 1.0
C      1  0.4713510000000  0.5507520000000  0.4628320000000 1.0
C      1  0.4837020000000  0.5501740000000  0.5253480000000 1.0
C      1  0.4906210000000  0.5662490000000  0.4581960000000 1.0
C      1  0.4742350000000  0.5587150000000  0.5456260000000 1.0
C      1  0.5279160000000  0.4814900000000  0.5592610000000 1.0
C      1  0.5365340000000  0.4753200000000  0.4402540000000 1.0
C      1  0.5362360000000  0.5056510000000  0.5578210000000 1.0
C      1  0.5404410000000  0.5007050000000  0.4437630000000 1.0
C      1  0.5158710000000  0.5322410000000  0.5478040000000 1.0
C      1  0.5137230000000  0.5268720000000  0.4568260000000 1.0
C      1  0.4792860000000  0.5396270000000  0.4601800000000 1.0
C      1  0.4920750000000  0.5426270000000  0.5328040000000 1.0
C      1  0.5515500000000  0.5215260000000  0.4542450000000 1.0
C      1  0.5526370000000  0.5238280000000  0.5482410000000 1.0
C      1  0.4684780000000  0.5046200000000  0.4363610000000 1.0
C      1  0.4600310000000  0.4966250000000  0.5744940000000 1.0
C      1  0.5661420000000  0.4842900000000  0.4908150000000 1.0
C      1  0.5615030000000  0.4869720000000  0.5143790000000 1.0
C      1  0.4632050000000  0.4713620000000  0.4504870000000 1.0
C      1  0.4624260000000  0.4654500000000  0.5563490000000 1.0
C      1  0.4556830000000  0.4873250000000  0.5642530000000 1.0
C      1  0.4610380000000  0.4952130000000  0.4441990000000 1.0
C      1  0.4929520000000  0.4488460000000  0.5226790000000 1.0
C      1  0.4917910000000  0.4493080000000  0.4806990000000 1.0
C      1  0.4831860000000  0.5156600000000  0.5534340000000 1.0
C      1  0.4772000000000  0.5250660000000  0.4624330000000 1.0
C      1  0.4745510000000  0.5655150000000  0.5100870000000 1.0
C      1  0.4749230000000  0.5740870000000  0.4860880000000 1.0
C      1  0.4728920000000  0.4865370000000  0.5254290000000 1.0
C      1  0.4679150000000  0.4868880000000  0.4796010000000 1.0
C      1  0.5538340000000  0.5447550000000  0.4624030000000 1.0
C      1  0.5584510000000  0.5450530000000  0.5376400000000 1.0
C      1  0.4773080000000  0.4630610000000  0.5360840000000 1.0
C      1  0.4764570000000  0.4655160000000  0.4697400000000 1.0
C      1  0.5338740000000  0.5346440000000  0.4687230000000 1.0
C      1  0.5360140000000  0.5392640000000  0.5348020000000 1.0
C      1  0.4623810000000  0.5556350000000  0.4736570000000 1.0
C      1  0.4516040000000  0.5595080000000  0.5179360000000 1.0
C      1  0.5015600000000  0.4558180000000  0.4888340000000 1.0
C      1  0.5004530000000  0.4559910000000  0.5136720000000 1.0
C      1  0.5245480000000  0.5304580000000  0.5376700000000 1.0
C      1  0.5223860000000  0.5255050000000  0.4672860000000 1.0
C      1  0.5248660000000  0.4668570000000  0.4386990000000 1.0
C      1  0.5188140000000  0.4711070000000  0.5642770000000 1.0
C      1  0.5567950000000  0.4643330000000  0.4524550000000 1.0
C      1  0.5431630000000  0.4730100000000  0.5394600000000 1.0
C      1  0.5564780000000  0.4729320000000  0.5175440000000 1.0
C      1  0.5664170000000  0.4562500000000  0.4742100000000 1.0
C      1  0.4602390000000  0.5190980000000  0.5624340000000 1.0
C      1  0.4599270000000  0.5268730000000  0.4252170000000 1.0
C      1  0.5646290000000  0.4579470000000  0.4875220000000 1.0
C      1  0.5588920000000  0.4650430000000  0.5062240000000 1.0
C      1  0.4182060000000  0.5066770000000  0.5177270000000 1.0
C      1  0.4173720000000  0.5048460000000  0.4926480000000 1.0
C      1  0.4960350000000  0.5182820000000  0.5513470000000 1.0
C      1  0.4906270000000  0.5193130000000  0.4621490000000 1.0
C      1  0.4674430000000  0.4823490000000  0.4436860000000 1.0
C      1  0.4630550000000  0.4749020000000  0.5660680000000 1.0
C      1  0.4460780000000  0.4548220000000  0.4779020000000 1.0
C      1  0.4470470000000  0.4528840000000  0.5276460000000 1.0
C      1  0.4921090000000  0.4770220000000  0.4357080000000 1.0
C      1  0.4867000000000  0.4726760000000  0.5758250000000 1.0
C      1  0.5437470000000  0.5152950000000  0.5539000000000 1.0
C      1  0.5443100000000  0.5122390000000  0.4477200000000 1.0
C      1  0.5643550000000  0.4597510000000  0.4623230000000 1.0
C      1  0.5493860000000  0.4702690000000  0.5286690000000 1.0
C      1  0.4700280000000  0.5125180000000  0.5531210000000 1.0
C      1  0.4658600000000  0.5181360000000  0.4651640000000 1.0
C      1  0.4716300000000  0.4686730000000  0.4933000000000 1.0
C      1  0.4724040000000  0.4666130000000  0.5128900000000 1.0
C      1  0.5028570000000  0.5323930000000  0.5510900000000 1.0
C      1  0.5000440000000  0.5291450000000  0.4570020000000 1.0
C      1  0.5331590000000  0.5471070000000  0.5237870000000 1.0
C      1  0.5310090000000  0.5435390000000  0.4790240000000 1.0
C      1  0.4988700000000  0.4641540000000  0.4369980000000 1.0
C      1  0.4952300000000  0.4620290000000  0.5710530000000 1.0
C      1  0.5229220000000  0.4248800000000  0.4681400000000 1.0
C      1  0.5204760000000  0.4284830000000  0.5362780000000 1.0
C      1  0.4722790000000  0.4952130000000  0.5358440000000 1.0
C      1  0.4630140000000  0.4978670000000  0.4770570000000 1.0
C      1  0.4365510000000  0.5244760000000  0.5145400000000 1.0
C      1  0.4338470000000  0.5224240000000  0.4942180000000 1.0
C      1  0.5218370000000  0.4587430000000  0.5586560000000 1.0
C      1  0.5262840000000  0.4540760000000  0.4438530000000 1.0
C      1  0.4429740000000  0.4888660000000  0.5422800000000 1.0
C      1  0.4432510000000  0.4897490000000  0.4596500000000 1.0
C      1  0.5238310000000  0.5187300000000  0.5140490000000 1.0
C      1  0.5219340000000  0.5186550000000  0.4926290000000 1.0
C      1  0.4918490000000  0.4496010000000  0.5671690000000 1.0
C      1  0.4942290000000  0.4518800000000  0.4395300000000 1.0
C      1  0.5235090000000  0.5449080000000  0.4889920000000 1.0
C      1  0.5260830000000  0.5472360000000  0.5134200000000 1.0
C      1  0.4840400000000  0.5518930000000  0.5105780000000 1.0
C      1  0.4627820000000  0.4717110000000  0.5037960000000 1.0
C      1  0.5548620000000  0.5070580000000  0.4999050000000 1.0
C      1  0.4707060000000  0.4940980000000  0.5130060000000 1.0
C      1  0.4756910000000  0.4228250000000  0.5012330000000 1.0
C      1  0.5135350000000  0.4480060000000  0.4900750000000 1.0
C      1  0.4679330000000  0.5694100000000  0.4974780000000 1.0
C      1  0.4557200000000  0.5322630000000  0.4999380000000 1.0
C      1  0.5640300000000  0.5173740000000  0.4999970000000 1.0
C      1  0.4410520000000  0.4743400000000  0.5054170000000 1.0
C      1  0.5375650000000  0.4749580000000  0.4935840000000 1.0
C      1  0.4879480000000  0.4200750000000  0.5010980000000 1.0
C      1  0.4780370000000  0.5060280000000  0.5103710000000 1.0
C      1  0.4802700000000  0.4444180000000  0.5017140000000 1.0
C      1  0.5103020000000  0.4893840000000  0.5078070000000 1.0
C      1  0.4350360000000  0.4632880000000  0.5041540000000 1.0
C      1  0.5420900000000  0.4867520000000  0.4982080000000 1.0
C      1  0.4152200000000  0.5031800000000  0.5052530000000 1.0
C      1  0.4465680000000  0.5212030000000  0.5029130000000 1.0
C      1  0.4556970000000  0.5632780000000  0.4950530000000 1.0
C      1  0.5330250000000  0.5209090000000  0.5025720000000 1.0
C      1  0.5196610000000  0.4981830000000  0.5031600000000 1.0
C      1  0.4573020000000  0.4956080000000  0.5073140000000 1.0
C      1  0.5272650000000  0.4514000000000  0.4907160000000 1.0
C      1  0.5246650000000  0.4299710000000  0.5000010000000 1.0
C      1  0.4956820000000  0.5309990000000  0.5045260000000 1.0
C      1  0.5194270000000  0.5450520000000  0.5018850000000 1.0
C      1  0.4977720000000  0.4320300000000  0.5003510000000 1.0
C      1  0.5400820000000  0.5625690000000  0.4977410000000 1.0
C      1  0.4420330000000  0.4510370000000  0.5029390000000 1.0
C      1  0.5599820000000  0.5305750000000  0.5001310000000 1.0
C      1  0.5568780000000  0.4516740000000  0.4995460000000 1.0
C      1  0.5296850000000  0.5710000000000  0.4968510000000 1.0
C      1  0.4818000000000  0.5372650000000  0.5047970000000 1.0
C      1  0.4996790000000  0.5171620000000  0.5054480000000 1.0
C      1  0.5046940000000  0.5424560000000  0.5038740000000 1.0
C      1  0.4932260000000  0.5772870000000  0.5015860000000 1.0
C      1  0.4697190000000  0.5298410000000  0.5037200000000 1.0
C      1  0.4558670000000  0.5098500000000  0.5051080000000 1.0
C      1  0.4678120000000  0.4362480000000  0.5018980000000 1.0
C      1  0.5318240000000  0.4642940000000  0.4910560000000 1.0
C      1  0.5241970000000  0.4232430000000  0.5117880000000 1.0
C      1  0.5553890000000  0.5422960000000  0.4996340000000 1.0
C      1  0.4960040000000  0.4613160000000  0.5013190000000 1.0
C      1  0.5411120000000  0.5093850000000  0.5011540000000 1.0
C      1  0.5141590000000  0.5129870000000  0.5037010000000 1.0
C      1  0.5171010000000  0.5710090000000  0.4990900000000 1.0
C      1  0.5334910000000  0.4972850000000  0.5009460000000 1.0
C      1  0.5117510000000  0.4346840000000  0.4955270000000 1.0
C      1  0.4804990000000  0.4602470000000  0.5019380000000 1.0
C      1  0.5791310000000  0.5121680000000  0.5004960000000 1.0
C      1  0.4522300000000  0.4822480000000  0.5052580000000 1.0
C      1  0.5041860000000  0.5677690000000  0.5023370000000 1.0
C      1  0.4274880000000  0.5307150000000  0.5045100000000 1.0
C      1  0.4985770000000  0.4934900000000  0.5109770000000 1.0
C      1  0.5477620000000  0.4419590000000  0.5004140000000 1.0
C      1  0.5346480000000  0.4399850000000  0.4964990000000 1.0
C      1  0.4920120000000  0.5059440000000  0.5099420000000 1.0
C      1  0.5647580000000  0.4704410000000  0.4944450000000 1.0
C      1  0.5568380000000  0.4919860000000  0.5006190000000 1.0
C      1  0.4688650000000  0.5155810000000  0.5063150000000 1.0
C      1  0.5492190000000  0.5540330000000  0.4992530000000 1.0
C      1  0.4497800000000  0.5441890000000  0.4957800000000 1.0
C      1  0.4979820000000  0.5545000000000  0.5052740000000 1.0
END
