TITL C-616442-5639-40 -80.1519774475841 1000000 -3723.1468040159 0 0 520 (C1) n - 1
REM
REM in /scratch/bkarasulu/Only-C240/Try3-MINAMP_3A
REM
REM
REM
REM
REM
REM ./C.cell (861c01eed278495e92615705e35c7759)
REM
REM compiler GCC version 9.2.1 20190827 (Red Hat 9.2.1-1)
REM options -cpp -mtune=generic -march=x86-64 -g -O0 -fpre-include=/usr/include/finclude/math-vector-fortran.h
REM seed -1550666016 -2129914895 1281712246 -1885475404 -292588342 1097005683 -786190306 233580234 9884039 1618215985 123077335 -1747681869 96043726 -1396476533 1254605282 1783814117 401450083 1955261605 -1918122228 -1600962074 -570608495 -1105144677 -880855155 579420226 -19593611 848220594 -455831186 1411502441 1173491223 -485963509 -1092859266 128218985 434717753
REM
CELL 1.54180  100.00000  100.00000  100.00000   90.00000   90.00000   90.00000
LATT -1
SFAC C  
C      1  0.4700880000000  0.4534170000000  0.4373790000000 1.0
C      1  0.4339850000000  0.4544450000000  0.4842910000000 1.0
C      1  0.4461810000000  0.4532540000000  0.5424390000000 1.0
C      1  0.5003910000000  0.4531930000000  0.5688190000000 1.0
C      1  0.5544110000000  0.4523200000000  0.5433150000000 1.0
C      1  0.5662850000000  0.4531510000000  0.4853060000000 1.0
C      1  0.5298240000000  0.4535170000000  0.4383400000000 1.0
C      1  0.5292590000000  0.5158390000000  0.4768540000000 1.0
C      1  0.4912530000000  0.5096940000000  0.4611970000000 1.0
C      1  0.4689590000000  0.5160300000000  0.4765190000000 1.0
C      1  0.4625010000000  0.5097060000000  0.5166080000000 1.0
C      1  0.4841140000000  0.5144130000000  0.5344540000000 1.0
C      1  0.5258420000000  0.5098270000000  0.5306070000000 1.0
C      1  0.5402350000000  0.5128530000000  0.5039230000000 1.0
C      1  0.5819640000000  0.5253180000000  0.5285350000000 1.0
C      1  0.5726850000000  0.5256270000000  0.4553380000000 1.0
C      1  0.5097650000000  0.5261490000000  0.4169100000000 1.0
C      1  0.4394910000000  0.5265210000000  0.4386000000000 1.0
C      1  0.4154560000000  0.5263620000000  0.5091670000000 1.0
C      1  0.4549610000000  0.5260060000000  0.5719670000000 1.0
C      1  0.5289350000000  0.5256740000000  0.5797260000000 1.0
C      1  0.5821840000000  0.4713420000000  0.4916160000000 1.0
C      1  0.5446100000000  0.4722660000000  0.4310190000000 1.0
C      1  0.4736310000000  0.4723680000000  0.4214040000000 1.0
C      1  0.4228130000000  0.4728570000000  0.4718020000000 1.0
C      1  0.4297590000000  0.4722620000000  0.5428290000000 1.0
C      1  0.4904870000000  0.4720550000000  0.5817220000000 1.0
C      1  0.5584820000000  0.4714500000000  0.5590780000000 1.0
C      1  0.4980110000000  0.4953420000000  0.5637600000000 1.0
C      1  0.5509970000000  0.4945960000000  0.5431000000000 1.0
C      1  0.5661810000000  0.4943800000000  0.4883210000000 1.0
C      1  0.5305310000000  0.4954770000000  0.4437480000000 1.0
C      1  0.4738140000000  0.4952930000000  0.4387060000000 1.0
C      1  0.4369140000000  0.4967340000000  0.4821380000000 1.0
C      1  0.4465380000000  0.4949630000000  0.5391570000000 1.0
C      1  0.5139700000000  0.5687800000000  0.5393460000000 1.0
C      1  0.5426470000000  0.5643890000000  0.5162470000000 1.0
C      1  0.5355860000000  0.5654880000000  0.4795530000000 1.0
C      1  0.5056890000000  0.5634050000000  0.4582600000000 1.0
C      1  0.4705630000000  0.5659070000000  0.4689340000000 1.0
C      1  0.4541630000000  0.5651800000000  0.5022820000000 1.0
C      1  0.4782520000000  0.5635790000000  0.5347160000000 1.0
C      1  0.4941650000000  0.4880520000000  0.4754960000000 1.0
C      1  0.4697050000000  0.4863150000000  0.4837610000000 1.0
C      1  0.4749450000000  0.4881580000000  0.5088460000000 1.0
C      1  0.4927180000000  0.4889080000000  0.5251790000000 1.0
C      1  0.5167620000000  0.4870030000000  0.5207070000000 1.0
C      1  0.5344890000000  0.4851230000000  0.5020310000000 1.0
C      1  0.5179720000000  0.4893130000000  0.4825620000000 1.0
C      1  0.5471740000000  0.4708260000000  0.4861790000000 1.0
C      1  0.5171100000000  0.4705290000000  0.4540180000000 1.0
C      1  0.4755110000000  0.4703410000000  0.4559450000000 1.0
C      1  0.4514560000000  0.4716580000000  0.4911660000000 1.0
C      1  0.4640350000000  0.4705770000000  0.5339180000000 1.0
C      1  0.5046400000000  0.4699810000000  0.5491480000000 1.0
C      1  0.5416470000000  0.4691970000000  0.5291300000000 1.0
C      1  0.5182930000000  0.4964610000000  0.4183800000000 1.0
C      1  0.4466370000000  0.4961730000000  0.4336090000000 1.0
C      1  0.4157760000000  0.4966300000000  0.5003550000000 1.0
C      1  0.4481430000000  0.4958750000000  0.5665470000000 1.0
C      1  0.5199870000000  0.4961720000000  0.5810090000000 1.0
C      1  0.5776600000000  0.4951270000000  0.5360990000000 1.0
C      1  0.5759620000000  0.4958500000000  0.4631460000000 1.0
C      1  0.4449710000000  0.5517240000000  0.5356180000000 1.0
C      1  0.4945610000000  0.5515180000000  0.5658780000000 1.0
C      1  0.5484790000000  0.5518670000000  0.5460060000000 1.0
C      1  0.5674380000000  0.5515610000000  0.4920950000000 1.0
C      1  0.5345860000000  0.5518870000000  0.4447280000000 1.0
C      1  0.4772060000000  0.5526130000000  0.4369170000000 1.0
C      1  0.4364300000000  0.5526630000000  0.4778740000000 1.0
C      1  0.5542460000000  0.5419000000000  0.4508890000000 1.0
C      1  0.4953280000000  0.5416070000000  0.4286940000000 1.0
C      1  0.4385670000000  0.5421910000000  0.4575760000000 1.0
C      1  0.4301490000000  0.5424200000000  0.5209050000000 1.0
C      1  0.4739010000000  0.5414740000000  0.5679250000000 1.0
C      1  0.5382680000000  0.5418860000000  0.5638590000000 1.0
C      1  0.5715730000000  0.5403210000000  0.5115100000000 1.0
C      1  0.4682620000000  0.5501930000000  0.5121460000000 1.0
C      1  0.4782800000000  0.5496500000000  0.5364110000000 1.0
C      1  0.5142060000000  0.5553270000000  0.5429750000000 1.0
C      1  0.5350760000000  0.5459340000000  0.5142170000000 1.0
C      1  0.5387440000000  0.5520450000000  0.4785990000000 1.0
C      1  0.5052970000000  0.5488080000000  0.4624260000000 1.0
C      1  0.4683720000000  0.5520700000000  0.4684120000000 1.0
C      1  0.4205750000000  0.4795660000000  0.5116230000000 1.0
C      1  0.4597340000000  0.4785890000000  0.5703220000000 1.0
C      1  0.5301650000000  0.4788180000000  0.5748700000000 1.0
C      1  0.5786570000000  0.4777000000000  0.5242350000000 1.0
C      1  0.5667050000000  0.4787440000000  0.4549740000000 1.0
C      1  0.5062190000000  0.4791840000000  0.4194030000000 1.0
C      1  0.4404690000000  0.4791240000000  0.4441840000000 1.0
C      1  0.5454020000000  0.4388280000000  0.5084310000000 1.0
C      1  0.5342450000000  0.4395100000000  0.4697480000000 1.0
C      1  0.4975700000000  0.4387040000000  0.4528700000000 1.0
C      1  0.4625730000000  0.4395350000000  0.4723210000000 1.0
C      1  0.4557630000000  0.4397860000000  0.5120500000000 1.0
C      1  0.4820990000000  0.4390190000000  0.5427240000000 1.0
C      1  0.5226400000000  0.4379010000000  0.5414440000000 1.0
C      1  0.5232810000000  0.4889660000000  0.4310610000000 1.0
C      1  0.4596960000000  0.4887550000000  0.4374360000000 1.0
C      1  0.4271720000000  0.4896620000000  0.4924760000000 1.0
C      1  0.4487460000000  0.4883060000000  0.5531160000000 1.0
C      1  0.5098530000000  0.4887150000000  0.5719500000000 1.0
C      1  0.5641850000000  0.4877100000000  0.5383750000000 1.0
C      1  0.5697150000000  0.4881030000000  0.4748370000000 1.0
C      1  0.5043680000000  0.4452380000000  0.5571170000000 1.0
C      1  0.5476380000000  0.4445200000000  0.5327620000000 1.0
C      1  0.5537900000000  0.4457740000000  0.4840750000000 1.0
C      1  0.5209480000000  0.4457830000000  0.4470830000000 1.0
C      1  0.4714570000000  0.4455520000000  0.4497290000000 1.0
C      1  0.4444900000000  0.4466100000000  0.4907110000000 1.0
C      1  0.4580960000000  0.4456560000000  0.5383560000000 1.0
C      1  0.4765710000000  0.5623870000000  0.4934780000000 1.0
C      1  0.4836240000000  0.5776700000000  0.5165680000000 1.0
C      1  0.4974640000000  0.5776010000000  0.5228190000000 1.0
C      1  0.5222870000000  0.5763690000000  0.5130650000000 1.0
C      1  0.5253890000000  0.5762190000000  0.4987650000000 1.0
C      1  0.5008050000000  0.5560890000000  0.4908410000000 1.0
C      1  0.4898950000000  0.5639820000000  0.4885050000000 1.0
C      1  0.5064860000000  0.4946620000000  0.5272270000000 1.0
C      1  0.5292920000000  0.4919050000000  0.5145880000000 1.0
C      1  0.5288190000000  0.4944370000000  0.4903270000000 1.0
C      1  0.5066210000000  0.4952550000000  0.4742440000000 1.0
C      1  0.4801930000000  0.4932820000000  0.4748850000000 1.0
C      1  0.4686730000000  0.4945380000000  0.4981240000000 1.0
C      1  0.4799900000000  0.4943390000000  0.5211510000000 1.0
C      1  0.4402530000000  0.4751760000000  0.5519480000000 1.0
C      1  0.5039170000000  0.4755000000000  0.5784930000000 1.0
C      1  0.5649230000000  0.4744310000000  0.5468550000000 1.0
C      1  0.5765800000000  0.4745420000000  0.4790310000000 1.0
C      1  0.5312130000000  0.4756970000000  0.4278970000000 1.0
C      1  0.4625250000000  0.4754870000000  0.4296180000000 1.0
C      1  0.4227040000000  0.4762620000000  0.4855080000000 1.0
C      1  0.5758080000000  0.5254980000000  0.5152000000000 1.0
C      1  0.5583070000000  0.5265080000000  0.4520200000000 1.0
C      1  0.4981190000000  0.5265380000000  0.4258180000000 1.0
C      1  0.4386630000000  0.5272610000000  0.4533720000000 1.0
C      1  0.4263360000000  0.5271470000000  0.5188680000000 1.0
C      1  0.4694770000000  0.5264600000000  0.5690680000000 1.0
C      1  0.5359370000000  0.5265510000000  0.5667700000000 1.0
C      1  0.5156650000000  0.4016240000000  0.4969220000000 1.0
C      1  0.5074450000000  0.4018310000000  0.4855070000000 1.0
C      1  0.4933840000000  0.4018560000000  0.4847330000000 1.0
C      1  0.4840410000000  0.4019210000000  0.4952690000000 1.0
C      1  0.4865040000000  0.4019400000000  0.5091210000000 1.0
C      1  0.4988420000000  0.4016770000000  0.5158970000000 1.0
C      1  0.5118410000000  0.4015320000000  0.5104790000000 1.0
C      1  0.5407020000000  0.4706590000000  0.5718200000000 1.0
C      1  0.5820150000000  0.4698960000000  0.5135220000000 1.0
C      1  0.5610680000000  0.4708930000000  0.4454010000000 1.0
C      1  0.4952050000000  0.4712700000000  0.4176470000000 1.0
C      1  0.4326360000000  0.4713490000000  0.4522040000000 1.0
C      1  0.4213950000000  0.4714850000000  0.5225890000000 1.0
C      1  0.4691840000000  0.4706780000000  0.5762700000000 1.0
C      1  0.5759500000000  0.5419270000000  0.4986320000000 1.0
C      1  0.5449760000000  0.5425050000000  0.4410050000000 1.0
C      1  0.4818000000000  0.5430920000000  0.4271760000000 1.0
C      1  0.4310650000000  0.5427940000000  0.4689480000000 1.0
C      1  0.4338300000000  0.5428280000000  0.5340770000000 1.0
C      1  0.4865140000000  0.5419690000000  0.5730580000000 1.0
C      1  0.5500460000000  0.5425040000000  0.5570360000000 1.0
C      1  0.4874690000000  0.5332130000000  0.5105760000000 1.0
C      1  0.4996750000000  0.5360670000000  0.5167340000000 1.0
C      1  0.5122980000000  0.5390610000000  0.5106130000000 1.0
C      1  0.5152300000000  0.5379740000000  0.4966710000000 1.0
C      1  0.5057380000000  0.5426440000000  0.4859290000000 1.0
C      1  0.4916840000000  0.5371870000000  0.4854270000000 1.0
C      1  0.4745520000000  0.5494050000000  0.4991700000000 1.0
C      1  0.4345840000000  0.4595480000000  0.5362040000000 1.0
C      1  0.4883330000000  0.4591340000000  0.5742420000000 1.0
C      1  0.5511890000000  0.4585200000000  0.5560860000000 1.0
C      1  0.5747310000000  0.4589400000000  0.4954490000000 1.0
C      1  0.5430480000000  0.4594250000000  0.4388460000000 1.0
C      1  0.4786700000000  0.4594200000000  0.4272560000000 1.0
C      1  0.4309550000000  0.4603090000000  0.4715430000000 1.0
C      1  0.5366820000000  0.4279380000000  0.5120300000000 1.0
C      1  0.5318590000000  0.4289140000000  0.4792040000000 1.0
C      1  0.5035130000000  0.4287870000000  0.4614050000000 1.0
C      1  0.4719960000000  0.4286680000000  0.4728310000000 1.0
C      1  0.4619280000000  0.4292450000000  0.5044730000000 1.0
C      1  0.4801400000000  0.4287740000000  0.5328090000000 1.0
C      1  0.5133670000000  0.4281850000000  0.5362530000000 1.0
C      1  0.5586380000000  0.5573470000000  0.5016890000000 1.0
C      1  0.5378760000000  0.5596350000000  0.4562500000000 1.0
C      1  0.4884830000000  0.5591050000000  0.4431990000000 1.0
C      1  0.4465040000000  0.5603010000000  0.4713050000000 1.0
C      1  0.4475300000000  0.5582890000000  0.5233500000000 1.0
C      1  0.4865930000000  0.5590620000000  0.5566780000000 1.0
C      1  0.5366760000000  0.5600130000000  0.5471260000000 1.0
C      1  0.4273160000000  0.5054070000000  0.5601990000000 1.0
C      1  0.5024640000000  0.5050480000000  0.5944340000000 1.0
C      1  0.5761820000000  0.5044930000000  0.5579450000000 1.0
C      1  0.5929420000000  0.5045850000000  0.4772900000000 1.0
C      1  0.5399860000000  0.5054770000000  0.4143120000000 1.0
C      1  0.4578410000000  0.5057130000000  0.4149990000000 1.0
C      1  0.4068030000000  0.5055330000000  0.4800580000000 1.0
C      1  0.5092760000000  0.4641210000000  0.5716340000000 1.0
C      1  0.5623870000000  0.4631210000000  0.5383110000000 1.0
C      1  0.5676300000000  0.4637230000000  0.4758960000000 1.0
C      1  0.5232750000000  0.4644130000000  0.4317750000000 1.0
C      1  0.4608800000000  0.4643240000000  0.4384990000000 1.0
C      1  0.4289170000000  0.4651210000000  0.4922080000000 1.0
C      1  0.4491320000000  0.4639550000000  0.5514600000000 1.0
C      1  0.5308910000000  0.4380640000000  0.4895420000000 1.0
C      1  0.5108870000000  0.4378360000000  0.4688850000000 1.0
C      1  0.4823860000000  0.4376100000000  0.4713070000000 1.0
C      1  0.4673680000000  0.4384440000000  0.4956810000000 1.0
C      1  0.4766330000000  0.4379630000000  0.5230900000000 1.0
C      1  0.5035540000000  0.4373680000000  0.5329030000000 1.0
C      1  0.5281520000000  0.4368990000000  0.5181190000000 1.0
C      1  0.4457160000000  0.5262090000000  0.5013000000000 1.0
C      1  0.4667170000000  0.5242160000000  0.5430050000000 1.0
C      1  0.5140560000000  0.5252470000000  0.5507710000000 1.0
C      1  0.5505690000000  0.5239280000000  0.5214490000000 1.0
C      1  0.5491980000000  0.5248290000000  0.4768390000000 1.0
C      1  0.5109050000000  0.5247060000000  0.4499190000000 1.0
C      1  0.4651200000000  0.5253590000000  0.4570760000000 1.0
C      1  0.5427060000000  0.4457910000000  0.4947250000000 1.0
C      1  0.5217780000000  0.4459160000000  0.4626280000000 1.0
C      1  0.4844270000000  0.4449620000000  0.4582030000000 1.0
C      1  0.4590260000000  0.4463180000000  0.4858530000000 1.0
C      1  0.4639610000000  0.4458320000000  0.5239870000000 1.0
C      1  0.4965550000000  0.4453190000000  0.5435700000000 1.0
C      1  0.5322230000000  0.4440170000000  0.5308950000000 1.0
C      1  0.5157910000000  0.5284820000000  0.5836240000000 1.0
C      1  0.5760980000000  0.5282520000000  0.5408140000000 1.0
C      1  0.5798470000000  0.5285150000000  0.4669820000000 1.0
C      1  0.5230770000000  0.5290880000000  0.4196110000000 1.0
C      1  0.4497480000000  0.5292900000000  0.4294570000000 1.0
C      1  0.4147180000000  0.5295430000000  0.4956240000000 1.0
C      1  0.4437070000000  0.5289190000000  0.5641940000000 1.0
C      1  0.5185220000000  0.4450340000000  0.5533460000000 1.0
C      1  0.5528390000000  0.4451050000000  0.5190270000000 1.0
C      1  0.5468650000000  0.4462180000000  0.4712690000000 1.0
C      1  0.5066230000000  0.4457020000000  0.4440630000000 1.0
C      1  0.4607400000000  0.4461650000000  0.4596900000000 1.0
C      1  0.4452230000000  0.4468590000000  0.5052180000000 1.0
C      1  0.4700660000000  0.4456960000000  0.5470670000000 1.0
C      1  0.5834410000000  0.5178170000000  0.4586810000000 1.0
C      1  0.5194970000000  0.5185530000000  0.4111670000000 1.0
C      1  0.4410840000000  0.5184260000000  0.4277530000000 1.0
C      1  0.4077850000000  0.5186000000000  0.5010180000000 1.0
C      1  0.4437690000000  0.5182600000000  0.5732970000000 1.0
C      1  0.5228820000000  0.5177490000000  0.5890280000000 1.0
C      1  0.5852450000000  0.5176560000000  0.5394150000000 1.0
C      1  0.4443330000000  0.5085780000000  0.4838380000000 1.0
C      1  0.4502960000000  0.5081030000000  0.5363240000000 1.0
C      1  0.4978120000000  0.5070290000000  0.5558170000000 1.0
C      1  0.5472760000000  0.5074900000000  0.5392260000000 1.0
C      1  0.5602090000000  0.5067740000000  0.4899030000000 1.0
C      1  0.5274260000000  0.5070050000000  0.4512890000000 1.0
C      1  0.4758270000000  0.5082340000000  0.4435230000000 1.0
C      1  0.5751850000000  0.5283490000000  0.4801490000000 1.0
C      1  0.5298040000000  0.5284910000000  0.4317880000000 1.0
C      1  0.4635860000000  0.5295640000000  0.4312920000000 1.0
C      1  0.4247390000000  0.5299610000000  0.4859800000000 1.0
C      1  0.4422150000000  0.5289480000000  0.5503380000000 1.0
C      1  0.5041820000000  0.5275680000000  0.5755860000000 1.0
C      1  0.5627160000000  0.5287180000000  0.5442910000000 1.0
C      1  0.5275960000000  0.4921400000000  0.5542510000000 1.0
C      1  0.5614230000000  0.4907000000000  0.5130570000000 1.0
C      1  0.5469200000000  0.4914960000000  0.4628740000000 1.0
C      1  0.4996760000000  0.4924050000000  0.4392190000000 1.0
C      1  0.4513320000000  0.4927590000000  0.4613910000000 1.0
C      1  0.4412040000000  0.4928210000000  0.5137930000000 1.0
C      1  0.4744600000000  0.4912030000000  0.5546530000000 1.0
C      1  0.5517380000000  0.5525340000000  0.4733980000000 1.0
C      1  0.5099150000000  0.5524020000000  0.4481400000000 1.0
C      1  0.4614520000000  0.5529280000000  0.4558880000000 1.0
C      1  0.4419740000000  0.5572850000000  0.5016240000000 1.0
C      1  0.4677950000000  0.5517920000000  0.5456220000000 1.0
C      1  0.5167610000000  0.5531630000000  0.5566810000000 1.0
C      1  0.5480270000000  0.5512110000000  0.5209950000000 1.0
C      1  0.5138910000000  0.5807050000000  0.4909590000000 1.0
C      1  0.5083570000000  0.5771700000000  0.4781310000000 1.0
C      1  0.4923330000000  0.5755620000000  0.4788420000000 1.0
C      1  0.4856990000000  0.5846430000000  0.4885220000000 1.0
C      1  0.4824140000000  0.5843440000000  0.5040110000000 1.0
C      1  0.5084960000000  0.5810080000000  0.5141070000000 1.0
C      1  0.5056450000000  0.5863810000000  0.5010710000000 1.0
C      1  0.4268460000000  0.5210140000000  0.4606720000000 1.0
C      1  0.4243280000000  0.5211070000000  0.5326420000000 1.0
C      1  0.4790880000000  0.5203250000000  0.5790100000000 1.0
C      1  0.5497400000000  0.5204110000000  0.5658430000000 1.0
C      1  0.5836940000000  0.5198390000000  0.5035540000000 1.0
C      1  0.5537930000000  0.5205520000000  0.4389350000000 1.0
C      1  0.4853640000000  0.5210170000000  0.4196140000000 1.0
C      1  0.5312120000000  0.4706480000000  0.5038480000000 1.0
C      1  0.5184030000000  0.4752750000000  0.4830330000000 1.0
C      1  0.4962990000000  0.4745340000000  0.4748660000000 1.0
C      1  0.4735730000000  0.4714750000000  0.4831460000000 1.0
C      1  0.4753870000000  0.4745010000000  0.5075470000000 1.0
C      1  0.4914970000000  0.4750000000000  0.5244620000000 1.0
C      1  0.5147680000000  0.4735150000000  0.5217140000000 1.0
C      1  0.4830490000000  0.4602080000000  0.4624700000000 1.0
C      1  0.4617310000000  0.4621390000000  0.4885230000000 1.0
C      1  0.4694550000000  0.4609010000000  0.5253440000000 1.0
C      1  0.5008950000000  0.4602500000000  0.5398350000000 1.0
C      1  0.5318310000000  0.4592270000000  0.5264670000000 1.0
C      1  0.5390320000000  0.4615020000000  0.4932340000000 1.0
C      1  0.5161520000000  0.4609340000000  0.4640890000000 1.0
C      1  0.5094350000000  0.4825020000000  0.4340660000000 1.0
C      1  0.4540790000000  0.4827530000000  0.4506690000000 1.0
C      1  0.4340900000000  0.4832740000000  0.5049920000000 1.0
C      1  0.4628260000000  0.4819520000000  0.5556930000000 1.0
C      1  0.5208250000000  0.4821760000000  0.5631170000000 1.0
C      1  0.5635120000000  0.4812860000000  0.5242430000000 1.0
C      1  0.5577000000000  0.4821320000000  0.4668210000000 1.0
C      1  0.5027940000000  0.4572050000000  0.4363630000000 1.0
C      1  0.4527340000000  0.4579970000000  0.4584220000000 1.0
C      1  0.4385770000000  0.4582840000000  0.5105950000000 1.0
C      1  0.4701950000000  0.4569960000000  0.5558080000000 1.0
C      1  0.5254730000000  0.4565980000000  0.5583980000000 1.0
C      1  0.5609520000000  0.4567120000000  0.5167630000000 1.0
C      1  0.5507810000000  0.4575220000000  0.4635190000000 1.0
C      1  0.5316430000000  0.5709410000000  0.5227780000000 1.0
C      1  0.5368290000000  0.5704200000000  0.4929450000000 1.0
C      1  0.5151480000000  0.5709060000000  0.4669250000000 1.0
C      1  0.4838320000000  0.5712220000000  0.4665540000000 1.0
C      1  0.4625450000000  0.5676380000000  0.4908860000000 1.0
C      1  0.4732730000000  0.5696240000000  0.5226360000000 1.0
C      1  0.5004110000000  0.5723020000000  0.5360620000000 1.0
C      1  0.4696660000000  0.5058420000000  0.4117080000000 1.0
C      1  0.4117140000000  0.5054270000000  0.4687790000000 1.0
C      1  0.4210830000000  0.5056140000000  0.5496010000000 1.0
C      1  0.4904850000000  0.5048600000000  0.5918530000000 1.0
C      1  0.5669920000000  0.5047720000000  0.5660870000000 1.0
C      1  0.5939900000000  0.5042850000000  0.4895430000000 1.0
C      1  0.5495480000000  0.5052540000000  0.4219770000000 1.0
C      1  0.4459190000000  0.4889600000000  0.4740650000000 1.0
C      1  0.4474630000000  0.4881600000000  0.5263380000000 1.0
C      1  0.4880150000000  0.4868700000000  0.5571670000000 1.0
C      1  0.5384570000000  0.4876170000000  0.5456450000000 1.0
C      1  0.5605310000000  0.4867930000000  0.4993100000000 1.0
C      1  0.5360680000000  0.4871330000000  0.4542580000000 1.0
C      1  0.4860730000000  0.4881990000000  0.4421270000000 1.0
C      1  0.4822570000000  0.4403030000000  0.4969460000000 1.0
C      1  0.4866730000000  0.4404110000000  0.5120970000000 1.0
C      1  0.5011860000000  0.4400040000000  0.5181230000000 1.0
C      1  0.5148690000000  0.4396160000000  0.5104640000000 1.0
C      1  0.5170440000000  0.4401190000000  0.4949290000000 1.0
C      1  0.5066170000000  0.4403130000000  0.4831420000000 1.0
C      1  0.4909910000000  0.4400620000000  0.4839670000000 1.0
C      1  0.4509830000000  0.5206000000000  0.4609260000000 1.0
C      1  0.4398990000000  0.5202430000000  0.5145450000000 1.0
C      1  0.4737260000000  0.5198370000000  0.5555670000000 1.0
C      1  0.5283230000000  0.5196310000000  0.5540270000000 1.0
C      1  0.5623700000000  0.5187810000000  0.5138290000000 1.0
C      1  0.5485040000000  0.5201550000000  0.4625930000000 1.0
C      1  0.4995340000000  0.5194300000000  0.4399110000000 1.0
C      1  0.4607030000000  0.4693400000000  0.4528930000000 1.0
C      1  0.4399070000000  0.4699970000000  0.5010580000000 1.0
C      1  0.4632120000000  0.4685840000000  0.5491900000000 1.0
C      1  0.5161600000000  0.4684850000000  0.5589760000000 1.0
C      1  0.5564050000000  0.4680150000000  0.5253420000000 1.0
C      1  0.5540410000000  0.4689620000000  0.4727130000000 1.0
C      1  0.5115360000000  0.4689290000000  0.4399340000000 1.0
C      1  0.5249880000000  0.4167210000000  0.4816590000000 1.0
C      1  0.5012380000000  0.4167270000000  0.4686400000000 1.0
C      1  0.4762150000000  0.4166780000000  0.4790670000000 1.0
C      1  0.4691690000000  0.4170360000000  0.5051540000000 1.0
C      1  0.4850620000000  0.4166860000000  0.5271560000000 1.0
C      1  0.5120610000000  0.4162070000000  0.5285700000000 1.0
C      1  0.5300130000000  0.4160550000000  0.5082010000000 1.0
C      1  0.5552220000000  0.5115370000000  0.5028500000000 1.0
C      1  0.5352000000000  0.5127750000000  0.4627710000000 1.0
C      1  0.4887590000000  0.5140190000000  0.4478580000000 1.0
C      1  0.4537900000000  0.5146540000000  0.4743240000000 1.0
C      1  0.4504860000000  0.5144490000000  0.5228090000000 1.0
C      1  0.4854190000000  0.5123720000000  0.5494930000000 1.0
C      1  0.5341060000000  0.5137590000000  0.5418160000000 1.0
C      1  0.4750600000000  0.4596630000000  0.5690180000000 1.0
C      1  0.5387850000000  0.4593380000000  0.5630300000000 1.0
C      1  0.5728360000000  0.4594610000000  0.5094020000000 1.0
C      1  0.5524880000000  0.4600450000000  0.4494890000000 1.0
C      1  0.4928810000000  0.4600260000000  0.4264090000000 1.0
C      1  0.4388710000000  0.4608320000000  0.4598830000000 1.0
C      1  0.4308220000000  0.4605740000000  0.5224950000000 1.0
C      1  0.5273850000000  0.4779720000000  0.4583420000000 1.0
C      1  0.4850350000000  0.4779660000000  0.4504200000000 1.0
C      1  0.4547650000000  0.4822370000000  0.4823020000000 1.0
C      1  0.4561850000000  0.4781280000000  0.5260660000000 1.0
C      1  0.4932080000000  0.4769470000000  0.5501550000000 1.0
C      1  0.5357680000000  0.4769520000000  0.5383140000000 1.0
C      1  0.5485430000000  0.4809890000000  0.4957510000000 1.0
C      1  0.4954750000000  0.5375210000000  0.4624870000000 1.0
C      1  0.4667050000000  0.5403490000000  0.4771700000000 1.0
C      1  0.4641670000000  0.5365330000000  0.5145060000000 1.0
C      1  0.4869760000000  0.5385930000000  0.5367540000000 1.0
C      1  0.5173070000000  0.5443280000000  0.5335940000000 1.0
C      1  0.5375770000000  0.5375600000000  0.5032970000000 1.0
C      1  0.5287490000000  0.5412860000000  0.4768620000000 1.0
C      1  0.5216520000000  0.5322420000000  0.4431150000000 1.0
C      1  0.4668140000000  0.5330490000000  0.4448330000000 1.0
C      1  0.4367800000000  0.5343900000000  0.4925100000000 1.0
C      1  0.4546590000000  0.5324630000000  0.5441550000000 1.0
C      1  0.5071290000000  0.5317920000000  0.5621670000000 1.0
C      1  0.5536900000000  0.5322250000000  0.5334130000000 1.0
C      1  0.5612980000000  0.5322550000000  0.4806940000000 1.0
C      1  0.5138770000000  0.4548200000000  0.5097460000000 1.0
C      1  0.5151690000000  0.4556440000000  0.4955630000000 1.0
C      1  0.5057350000000  0.4557140000000  0.4849340000000 1.0
C      1  0.4915520000000  0.4553020000000  0.4851790000000 1.0
C      1  0.4840280000000  0.4557120000000  0.4972280000000 1.0
C      1  0.4882690000000  0.4557520000000  0.5108350000000 1.0
C      1  0.5013100000000  0.4553480000000  0.5164110000000 1.0
C      1  0.5701120000000  0.4917620000000  0.4505800000000 1.0
C      1  0.5049380000000  0.4922330000000  0.4141550000000 1.0
C      1  0.4352630000000  0.4921190000000  0.4418650000000 1.0
C      1  0.4151610000000  0.4923290000000  0.5143400000000 1.0
C      1  0.4587820000000  0.4916900000000  0.5756450000000 1.0
C      1  0.5338230000000  0.4918460000000  0.5789160000000 1.0
C      1  0.5843350000000  0.4907500000000  0.5238830000000 1.0
C      1  0.4985100000000  0.4109060000000  0.5268240000000 1.0
C      1  0.5201980000000  0.4106130000000  0.5177150000000 1.0
C      1  0.5264520000000  0.4108310000000  0.4950130000000 1.0
C      1  0.5126110000000  0.4112350000000  0.4760510000000 1.0
C      1  0.4891210000000  0.4111440000000  0.4747260000000 1.0
C      1  0.4736070000000  0.4112850000000  0.4924180000000 1.0
C      1  0.4778900000000  0.4113940000000  0.5155140000000 1.0
C      1  0.5491980000000  0.5097640000000  0.4812410000000 1.0
C      1  0.5131680000000  0.5094920000000  0.4524120000000 1.0
C      1  0.4685980000000  0.5101610000000  0.4557700000000 1.0
C      1  0.4481430000000  0.5109580000000  0.4975760000000 1.0
C      1  0.4642930000000  0.5092830000000  0.5398090000000 1.0
C      1  0.5101760000000  0.5101260000000  0.5485270000000 1.0
C      1  0.5477910000000  0.5089890000000  0.5248130000000 1.0
C      1  0.4547150000000  0.5061510000000  0.4590000000000 1.0
C      1  0.4396580000000  0.5063720000000  0.5093710000000 1.0
C      1  0.4719030000000  0.5048560000000  0.5520610000000 1.0
C      1  0.5233040000000  0.5056670000000  0.5549720000000 1.0
C      1  0.5588790000000  0.5043040000000  0.5159030000000 1.0
C      1  0.5477630000000  0.5050430000000  0.4669930000000 1.0
C      1  0.5043930000000  0.5056090000000  0.4407100000000 1.0
C      1  0.5123000000000  0.5061560000000  0.5338460000000 1.0
C      1  0.5341910000000  0.5051200000000  0.5182100000000 1.0
C      1  0.5352450000000  0.5076720000000  0.4889340000000 1.0
C      1  0.5045230000000  0.5056360000000  0.4644640000000 1.0
C      1  0.4780390000000  0.5062090000000  0.4682050000000 1.0
C      1  0.4615670000000  0.5059760000000  0.5027100000000 1.0
C      1  0.4732430000000  0.5057530000000  0.5268600000000 1.0
C      1  0.5538810000000  0.5067290000000  0.5704340000000 1.0
C      1  0.5896820000000  0.5059870000000  0.5027060000000 1.0
C      1  0.5567250000000  0.5069340000000  0.4337790000000 1.0
C      1  0.4834180000000  0.5074800000000  0.4134090000000 1.0
C      1  0.4212940000000  0.5072710000000  0.4587790000000 1.0
C      1  0.4192000000000  0.5073560000000  0.5358900000000 1.0
C      1  0.4786690000000  0.5066170000000  0.5847170000000 1.0
C      1  0.4734570000000  0.4657240000000  0.4963240000000 1.0
C      1  0.4808090000000  0.4665040000000  0.5182350000000 1.0
C      1  0.5026220000000  0.4660840000000  0.5266460000000 1.0
C      1  0.5239830000000  0.4642450000000  0.5156090000000 1.0
C      1  0.5250420000000  0.4657110000000  0.4918350000000 1.0
C      1  0.5091840000000  0.4669200000000  0.4755710000000 1.0
C      1  0.4852930000000  0.4651660000000  0.4757300000000 1.0
C      1  0.5468120000000  0.5656690000000  0.5026330000000 1.0
C      1  0.5294320000000  0.5670130000000  0.4667130000000 1.0
C      1  0.4915420000000  0.5664790000000  0.4553960000000 1.0
C      1  0.4586410000000  0.5667530000000  0.4771200000000 1.0
C      1  0.4607450000000  0.5625690000000  0.5159500000000 1.0
C      1  0.4889850000000  0.5665480000000  0.5436580000000 1.0
C      1  0.5283130000000  0.5680650000000  0.5367960000000 1.0
C      1  0.4077980000000  0.5061190000000  0.4941100000000 1.0
C      1  0.4384900000000  0.5057310000000  0.5686510000000 1.0
C      1  0.5159240000000  0.5054230000000  0.5905120000000 1.0
C      1  0.5819290000000  0.5049230000000  0.5451610000000 1.0
C      1  0.5861180000000  0.5052170000000  0.4650390000000 1.0
C      1  0.5261430000000  0.5060310000000  0.4120930000000 1.0
C      1  0.4469570000000  0.5060180000000  0.4238000000000 1.0
C      1  0.5069480000000  0.5459840000000  0.5631010000000 1.0
C      1  0.5506460000000  0.5456950000000  0.5338830000000 1.0
C      1  0.5616170000000  0.5462720000000  0.4807360000000 1.0
C      1  0.5220950000000  0.5461440000000  0.4442300000000 1.0
C      1  0.4672350000000  0.5470680000000  0.4447880000000 1.0
C      1  0.4376260000000  0.5487300000000  0.4911340000000 1.0
C      1  0.4551920000000  0.5463220000000  0.5432170000000 1.0
C      1  0.5407350000000  0.5260430000000  0.5102160000000 1.0
C      1  0.5346520000000  0.5287700000000  0.4801320000000 1.0
C      1  0.5077630000000  0.5295550000000  0.4635900000000 1.0
C      1  0.4723470000000  0.5292180000000  0.4703420000000 1.0
C      1  0.4582940000000  0.5331350000000  0.5018450000000 1.0
C      1  0.4781830000000  0.5277300000000  0.5329800000000 1.0
C      1  0.5115010000000  0.5326300000000  0.5382610000000 1.0
C      1  0.4905840000000  0.4944360000000  0.4128290000000 1.0
C      1  0.4255970000000  0.4943670000000  0.4526520000000 1.0
C      1  0.4171210000000  0.4943880000000  0.5287150000000 1.0
C      1  0.4715660000000  0.4938160000000  0.5823680000000 1.0
C      1  0.5473660000000  0.4937780000000  0.5739420000000 1.0
C      1  0.5883860000000  0.4929900000000  0.5099990000000 1.0
C      1  0.5618370000000  0.4940030000000  0.4388350000000 1.0
C      1  0.5436250000000  0.5298680000000  0.4344130000000 1.0
C      1  0.4753170000000  0.5308310000000  0.4231760000000 1.0
C      1  0.4247500000000  0.5303770000000  0.4717680000000 1.0
C      1  0.4314470000000  0.5305080000000  0.5411180000000 1.0
C      1  0.4904060000000  0.5293730000000  0.5786000000000 1.0
C      1  0.5567480000000  0.5298220000000  0.5571410000000 1.0
C      1  0.5811460000000  0.5296580000000  0.4930830000000 1.0
C      1  0.5140380000000  0.5410910000000  0.4724590000000 1.0
C      1  0.4861930000000  0.5350620000000  0.4727330000000 1.0
C      1  0.4661070000000  0.5395970000000  0.4916970000000 1.0
C      1  0.4762390000000  0.5304540000000  0.5187160000000 1.0
C      1  0.4999410000000  0.5363010000000  0.5309910000000 1.0
C      1  0.5219230000000  0.5442660000000  0.5196990000000 1.0
C      1  0.5284430000000  0.5362270000000  0.4922470000000 1.0
C      1  0.4995400000000  0.5516440000000  0.4382660000000 1.0
C      1  0.4478370000000  0.5533130000000  0.4586880000000 1.0
C      1  0.4376860000000  0.5534360000000  0.5146250000000 1.0
C      1  0.4736180000000  0.5524070000000  0.5583270000000 1.0
C      1  0.5303790000000  0.5529820000000  0.5583890000000 1.0
C      1  0.5603720000000  0.5493980000000  0.5131100000000 1.0
C      1  0.5504360000000  0.5528970000000  0.4598050000000 1.0
C      1  0.4240210000000  0.4802470000000  0.4591210000000 1.0
C      1  0.4209930000000  0.4800910000000  0.5339290000000 1.0
C      1  0.4779450000000  0.4796460000000  0.5830030000000 1.0
C      1  0.5516730000000  0.4794450000000  0.5693930000000 1.0
C      1  0.5868080000000  0.4787550000000  0.5034950000000 1.0
C      1  0.5563510000000  0.4798940000000  0.4354130000000 1.0
C      1  0.4844190000000  0.4801870000000  0.4150540000000 1.0
C      1  0.4838410000000  0.5378010000000  0.4974360000000 1.0
C      1  0.4927460000000  0.5911820000000  0.4981540000000 1.0
END
