TITL C-616442-5639-115 -543.733986170711 1000000 -3649.94222851537 0 0 520 (C1) n - 1
REM
REM in /scratch/bkarasulu/Only-C240/Try3-MINAMP_3A
REM
REM
REM
REM
REM
REM ./C.cell (861c01eed278495e92615705e35c7759)
REM
REM compiler GCC version 9.2.1 20190827 (Red Hat 9.2.1-1)
REM options -cpp -mtune=generic -march=x86-64 -g -O0 -fpre-include=/usr/include/finclude/math-vector-fortran.h
REM seed -1652588792 785374513 -1059601869 -236224395 961500681 1132527201 474829517 -424818076 317830015 -943739051 129735804 -19079697 -1774440905 -404084285 -152243344 9349835 -1186513743 -574274419 1860840949 -1168367957 -841633584 1676610732 -777045418 -880925909 1158556610 1239579270 650495538 -855260349 -499741628 -1531805432 1969335233 2118417019 878401450
REM
CELL 1.54180  100.00000  100.00000  100.00000   90.00000   90.00000   90.00000
LATT -1
SFAC C  
C      1  0.5818520000000  0.4843810000000  0.5051610000000 1.0
C      1  0.4642510000000  0.4836730000000  0.4261390000000 1.0
C      1  0.4537060000000  0.4842080000000  0.5694590000000 1.0
C      1  0.5818590000000  0.5165710000000  0.4942650000000 1.0
C      1  0.4633020000000  0.5164090000000  0.5748800000000 1.0
C      1  0.4547040000000  0.5159130000000  0.4317920000000 1.0
C      1  0.4858030000000  0.4614490000000  0.5071860000000 1.0
C      1  0.5136730000000  0.4609830000000  0.5105800000000 1.0
C      1  0.5025300000000  0.4609520000000  0.4845490000000 1.0
C      1  0.4844000000000  0.5391330000000  0.4931880000000 1.0
C      1  0.5126840000000  0.5389580000000  0.4895050000000 1.0
C      1  0.5012400000000  0.5385760000000  0.5155440000000 1.0
C      1  0.5012530000000  0.5448380000000  0.4171860000000 1.0
C      1  0.4272330000000  0.5457780000000  0.5406140000000 1.0
C      1  0.5672980000000  0.5420890000000  0.5416550000000 1.0
C      1  0.5013440000000  0.4547770000000  0.5837260000000 1.0
C      1  0.4302990000000  0.4581970000000  0.4626300000000 1.0
C      1  0.5683580000000  0.4583190000000  0.4580060000000 1.0
C      1  0.5372330000000  0.4476530000000  0.5205800000000 1.0
C      1  0.4994260000000  0.4481790000000  0.4583940000000 1.0
C      1  0.4649070000000  0.4490500000000  0.5223210000000 1.0
C      1  0.5367940000000  0.5518640000000  0.4793590000000 1.0
C      1  0.4985850000000  0.5511830000000  0.5412960000000 1.0
C      1  0.4639260000000  0.5525550000000  0.4779840000000 1.0
C      1  0.5336460000000  0.4764030000000  0.5419630000000 1.0
C      1  0.5194510000000  0.4754140000000  0.4509550000000 1.0
C      1  0.4522260000000  0.4777600000000  0.5080730000000 1.0
C      1  0.5350040000000  0.5237870000000  0.4566250000000 1.0
C      1  0.5172170000000  0.5224970000000  0.5454150000000 1.0
C      1  0.4471210000000  0.5238880000000  0.4918560000000 1.0
C      1  0.4429630000000  0.4911630000000  0.4332960000000 1.0
C      1  0.4710260000000  0.4914660000000  0.5836600000000 1.0
C      1  0.5868190000000  0.4917590000000  0.4832840000000 1.0
C      1  0.4423120000000  0.5091800000000  0.5670360000000 1.0
C      1  0.4714790000000  0.5085910000000  0.4169200000000 1.0
C      1  0.5865360000000  0.5090750000000  0.5161930000000 1.0
C      1  0.4467980000000  0.4703490000000  0.4861190000000 1.0
C      1  0.5166630000000  0.4683470000000  0.5564340000000 1.0
C      1  0.5400860000000  0.4698010000000  0.4601650000000 1.0
C      1  0.4431290000000  0.5320120000000  0.5137710000000 1.0
C      1  0.5160390000000  0.5311190000000  0.4443080000000 1.0
C      1  0.5388660000000  0.5298730000000  0.5389750000000 1.0
C      1  0.4871340000000  0.4413440000000  0.4950440000000 1.0
C      1  0.5023380000000  0.4412140000000  0.5152280000000 1.0
C      1  0.5121170000000  0.4410260000000  0.4918110000000 1.0
C      1  0.4860620000000  0.5588900000000  0.5053320000000 1.0
C      1  0.5015210000000  0.5590180000000  0.4852010000000 1.0
C      1  0.5111130000000  0.5586300000000  0.5083660000000 1.0
C      1  0.4659410000000  0.4591570000000  0.5339400000000 1.0
C      1  0.5463990000000  0.4576370000000  0.5138770000000 1.0
C      1  0.4889690000000  0.4583190000000  0.4531630000000 1.0
C      1  0.4650820000000  0.5425830000000  0.4666860000000 1.0
C      1  0.5464430000000  0.5417840000000  0.4858180000000 1.0
C      1  0.4879870000000  0.5411740000000  0.5463100000000 1.0
C      1  0.4725670000000  0.5638470000000  0.4576370000000 1.0
C      1  0.4771820000000  0.5630960000000  0.5444850000000 1.0
C      1  0.5498060000000  0.5634180000000  0.4970330000000 1.0
C      1  0.4728810000000  0.4372850000000  0.5425310000000 1.0
C      1  0.4776020000000  0.4367740000000  0.4557560000000 1.0
C      1  0.5505670000000  0.4364310000000  0.5028540000000 1.0
C      1  0.5277930000000  0.5045440000000  0.5047630000000 1.0
C      1  0.4926310000000  0.5040130000000  0.4728700000000 1.0
C      1  0.4761940000000  0.5021640000000  0.5276660000000 1.0
C      1  0.5272690000000  0.4964710000000  0.4929150000000 1.0
C      1  0.4881840000000  0.4981470000000  0.5346150000000 1.0
C      1  0.4820680000000  0.4957940000000  0.4783480000000 1.0
C      1  0.5279170000000  0.5756670000000  0.5288840000000 1.0
C      1  0.5112610000000  0.5763690000000  0.4605510000000 1.0
C      1  0.4602210000000  0.5765120000000  0.5096540000000 1.0
C      1  0.5288050000000  0.4239720000000  0.4710000000000 1.0
C      1  0.5116490000000  0.4237570000000  0.5398670000000 1.0
C      1  0.4607130000000  0.4244360000000  0.4908060000000 1.0
C      1  0.5804250000000  0.5299740000000  0.4992310000000 1.0
C      1  0.4594350000000  0.5294180000000  0.4305550000000 1.0
C      1  0.4604370000000  0.5297790000000  0.5704350000000 1.0
C      1  0.5806200000000  0.4709220000000  0.5003150000000 1.0
C      1  0.4589460000000  0.4708210000000  0.5698020000000 1.0
C      1  0.4608600000000  0.4703080000000  0.4301760000000 1.0
C      1  0.4689220000000  0.4606270000000  0.4255360000000 1.0
C      1  0.4509690000000  0.4617450000000  0.5642060000000 1.0
C      1  0.5807520000000  0.4611370000000  0.5094510000000 1.0
C      1  0.4693160000000  0.5388410000000  0.5744770000000 1.0
C      1  0.4514160000000  0.5392160000000  0.4348780000000 1.0
C      1  0.5806800000000  0.5397500000000  0.4900630000000 1.0
C      1  0.4749920000000  0.5513650000000  0.4413540000000 1.0
C      1  0.4617070000000  0.5514530000000  0.5510200000000 1.0
C      1  0.5631490000000  0.5513780000000  0.5070980000000 1.0
C      1  0.4750720000000  0.4490320000000  0.5591010000000 1.0
C      1  0.4623140000000  0.4487810000000  0.4491790000000 1.0
C      1  0.5636630000000  0.4489530000000  0.4926260000000 1.0
C      1  0.4613370000000  0.4953680000000  0.4642000000000 1.0
C      1  0.4880000000000  0.4963820000000  0.5531980000000 1.0
C      1  0.5506490000000  0.4960700000000  0.4830430000000 1.0
C      1  0.4601410000000  0.5040610000000  0.5371160000000 1.0
C      1  0.4894420000000  0.5039770000000  0.4476170000000 1.0
C      1  0.5505080000000  0.5048240000000  0.5156940000000 1.0
C      1  0.4451380000000  0.4796110000000  0.4960480000000 1.0
C      1  0.5274030000000  0.4771750000000  0.5546340000000 1.0
C      1  0.5331070000000  0.4780250000000  0.4517880000000 1.0
C      1  0.4392730000000  0.5231620000000  0.5036070000000 1.0
C      1  0.5272830000000  0.5228200000000  0.4449060000000 1.0
C      1  0.5311700000000  0.5206810000000  0.5455820000000 1.0
C      1  0.5325630000000  0.5120750000000  0.4635990000000 1.0
C      1  0.4544830000000  0.5120860000000  0.4906480000000 1.0
C      1  0.5105530000000  0.5103670000000  0.5426470000000 1.0
C      1  0.5310640000000  0.4882210000000  0.5349800000000 1.0
C      1  0.4579770000000  0.4899150000000  0.5123910000000 1.0
C      1  0.5135290000000  0.4871250000000  0.4553820000000 1.0
C      1  0.4188850000000  0.4747540000000  0.5383400000000 1.0
C      1  0.5770640000000  0.4716330000000  0.5491910000000 1.0
C      1  0.5075670000000  0.4741560000000  0.4099400000000 1.0
C      1  0.4190840000000  0.5286380000000  0.4579490000000 1.0
C      1  0.5774550000000  0.5290730000000  0.4497340000000 1.0
C      1  0.5077300000000  0.5258160000000  0.5893250000000 1.0
C      1  0.4994480000000  0.5742790000000  0.4816680000000 1.0
C      1  0.4842870000000  0.5740740000000  0.5092330000000 1.0
C      1  0.5153810000000  0.5737500000000  0.5083600000000 1.0
C      1  0.4998110000000  0.4260250000000  0.5188060000000 1.0
C      1  0.4849570000000  0.4262080000000  0.4912580000000 1.0
C      1  0.5164290000000  0.4258310000000  0.4918320000000 1.0
C      1  0.5571310000000  0.4340820000000  0.5167220000000 1.0
C      1  0.4862340000000  0.4342470000000  0.4431960000000 1.0
C      1  0.4576980000000  0.4351810000000  0.5410160000000 1.0
C      1  0.5563600000000  0.5659900000000  0.4832930000000 1.0
C      1  0.4861390000000  0.5652440000000  0.5568440000000 1.0
C      1  0.4572980000000  0.5662030000000  0.4589070000000 1.0
C      1  0.4951740000000  0.5592920000000  0.5281590000000 1.0
C      1  0.5267590000000  0.5596930000000  0.4889950000000 1.0
C      1  0.4772290000000  0.5602590000000  0.4815890000000 1.0
C      1  0.4960840000000  0.4403570000000  0.4718700000000 1.0
C      1  0.5274270000000  0.4398860000000  0.5109680000000 1.0
C      1  0.4779780000000  0.4408310000000  0.5187440000000 1.0
C      1  0.4792330000000  0.5649120000000  0.4446030000000 1.0
C      1  0.4626620000000  0.5648650000000  0.5454740000000 1.0
C      1  0.5578400000000  0.5647970000000  0.5092540000000 1.0
C      1  0.4793530000000  0.4355860000000  0.5555740000000 1.0
C      1  0.4630330000000  0.4353710000000  0.4549580000000 1.0
C      1  0.5586590000000  0.4353880000000  0.4906070000000 1.0
C      1  0.4539880000000  0.5329930000000  0.4679630000000 1.0
C      1  0.4960240000000  0.5325080000000  0.5562560000000 1.0
C      1  0.5515010000000  0.5336300000000  0.4741150000000 1.0
C      1  0.4533630000000  0.4678820000000  0.5319230000000 1.0
C      1  0.4968910000000  0.4665450000000  0.4430340000000 1.0
C      1  0.5508560000000  0.4672570000000  0.5240670000000 1.0
C      1  0.5764480000000  0.4693030000000  0.4864880000000 1.0
C      1  0.4510680000000  0.4688370000000  0.4409180000000 1.0
C      1  0.4731100000000  0.4688610000000  0.5729740000000 1.0
C      1  0.5759760000000  0.5314230000000  0.5130330000000 1.0
C      1  0.4506110000000  0.5317110000000  0.5597490000000 1.0
C      1  0.4734700000000  0.5311600000000  0.4273850000000 1.0
C      1  0.5234260000000  0.4301310000000  0.4462950000000 1.0
C      1  0.4417780000000  0.4319140000000  0.5073520000000 1.0
C      1  0.5358650000000  0.4305160000000  0.5475850000000 1.0
C      1  0.5232920000000  0.5682170000000  0.5535780000000 1.0
C      1  0.4412410000000  0.5696890000000  0.4927700000000 1.0
C      1  0.5352480000000  0.5697490000000  0.4525340000000 1.0
C      1  0.4665120000000  0.4746070000000  0.5329450000000 1.0
C      1  0.5448940000000  0.4770560000000  0.5148950000000 1.0
C      1  0.4901880000000  0.4737340000000  0.4545260000000 1.0
C      1  0.4649760000000  0.5232300000000  0.4684200000000 1.0
C      1  0.5448020000000  0.5258340000000  0.4850460000000 1.0
C      1  0.4885170000000  0.5257760000000  0.5453990000000 1.0
C      1  0.4728230000000  0.4498160000000  0.4778030000000 1.0
C      1  0.4947800000000  0.4499530000000  0.5363050000000 1.0
C      1  0.5341160000000  0.4498630000000  0.4878990000000 1.0
C      1  0.4715830000000  0.5503240000000  0.5224790000000 1.0
C      1  0.4938480000000  0.5502790000000  0.4641720000000 1.0
C      1  0.5331690000000  0.5502630000000  0.5120040000000 1.0
C      1  0.5675770000000  0.4927520000000  0.5560210000000 1.0
C      1  0.5158620000000  0.4965610000000  0.4155080000000 1.0
C      1  0.4195680000000  0.4971140000000  0.5282720000000 1.0
C      1  0.5681380000000  0.5077920000000  0.4431910000000 1.0
C      1  0.5159920000000  0.5033950000000  0.5839110000000 1.0
C      1  0.4179260000000  0.5075590000000  0.4696450000000 1.0
C      1  0.5743070000000  0.5454380000000  0.4796670000000 1.0
C      1  0.4457390000000  0.5449370000000  0.4456190000000 1.0
C      1  0.4814710000000  0.5444800000000  0.5740680000000 1.0
C      1  0.5743620000000  0.4554720000000  0.5198290000000 1.0
C      1  0.4451830000000  0.4560850000000  0.5535160000000 1.0
C      1  0.4812190000000  0.4551570000000  0.4258890000000 1.0
C      1  0.4543220000000  0.5631390000000  0.4721110000000 1.0
C      1  0.4988040000000  0.5617670000000  0.5526860000000 1.0
C      1  0.5465910000000  0.5627310000000  0.4740780000000 1.0
C      1  0.4549480000000  0.4385430000000  0.5279370000000 1.0
C      1  0.4990680000000  0.4372340000000  0.4472920000000 1.0
C      1  0.5471860000000  0.4371190000000  0.5259290000000 1.0
C      1  0.4423780000000  0.5283250000000  0.5287170000000 1.0
C      1  0.5522360000000  0.5262800000000  0.5326310000000 1.0
C      1  0.5034500000000  0.5273040000000  0.4365530000000 1.0
C      1  0.4456120000000  0.4739500000000  0.4713400000000 1.0
C      1  0.5530100000000  0.4740000000000  0.4668950000000 1.0
C      1  0.5041210000000  0.4721040000000  0.5645610000000 1.0
C      1  0.4880320000000  0.5540950000000  0.4908430000000 1.0
C      1  0.4975570000000  0.5535940000000  0.5139430000000 1.0
C      1  0.5131040000000  0.5538300000000  0.4939350000000 1.0
C      1  0.4891040000000  0.4464640000000  0.5095450000000 1.0
C      1  0.4986790000000  0.4461120000000  0.4861870000000 1.0
C      1  0.5139480000000  0.4459930000000  0.5062820000000 1.0
C      1  0.5059690000000  0.5331210000000  0.5780120000000 1.0
C      1  0.5669700000000  0.5352290000000  0.4559880000000 1.0
C      1  0.4298880000000  0.5346570000000  0.4638790000000 1.0
C      1  0.5060260000000  0.4663380000000  0.4209170000000 1.0
C      1  0.5665100000000  0.4656110000000  0.5428290000000 1.0
C      1  0.4295360000000  0.4674130000000  0.5341990000000 1.0
C      1  0.4197350000000  0.5286020000000  0.4848800000000 1.0
C      1  0.5269730000000  0.5242290000000  0.5733640000000 1.0
C      1  0.5537500000000  0.5287110000000  0.4369030000000 1.0
C      1  0.4231380000000  0.4762000000000  0.5135600000000 1.0
C      1  0.5272660000000  0.4755330000000  0.4251020000000 1.0
C      1  0.5534440000000  0.4717540000000  0.5621520000000 1.0
C      1  0.5449820000000  0.4689320000000  0.5731220000000 1.0
C      1  0.5407040000000  0.4746910000000  0.4257960000000 1.0
C      1  0.4160920000000  0.4736430000000  0.5021500000000 1.0
C      1  0.5450530000000  0.5313420000000  0.4261460000000 1.0
C      1  0.5403850000000  0.5267180000000  0.5739510000000 1.0
C      1  0.4144580000000  0.5315140000000  0.4976720000000 1.0
C      1  0.5236060000000  0.5513090000000  0.5361030000000 1.0
C      1  0.5201610000000  0.5522130000000  0.4600920000000 1.0
C      1  0.4555850000000  0.5524760000000  0.5020480000000 1.0
C      1  0.5247170000000  0.4481140000000  0.4630940000000 1.0
C      1  0.5205930000000  0.4477660000000  0.5399350000000 1.0
C      1  0.4566440000000  0.4488110000000  0.4980600000000 1.0
C      1  0.4519030000000  0.4573920000000  0.4873310000000 1.0
C      1  0.5138940000000  0.4564230000000  0.5494930000000 1.0
C      1  0.5360090000000  0.4571980000000  0.4647190000000 1.0
C      1  0.4505880000000  0.5438860000000  0.5126400000000 1.0
C      1  0.5133360000000  0.5431340000000  0.4511520000000 1.0
C      1  0.5352550000000  0.5427480000000  0.5349830000000 1.0
C      1  0.4696490000000  0.4730320000000  0.4719840000000 1.0
C      1  0.4920460000000  0.4730370000000  0.5427880000000 1.0
C      1  0.5403210000000  0.4733110000000  0.4874690000000 1.0
C      1  0.4672690000000  0.5272890000000  0.5282150000000 1.0
C      1  0.4913610000000  0.5268540000000  0.4584010000000 1.0
C      1  0.5398000000000  0.5271340000000  0.5119430000000 1.0
C      1  0.4240160000000  0.4895840000000  0.4854980000000 1.0
C      1  0.5271440000000  0.4832930000000  0.5780370000000 1.0
C      1  0.5521080000000  0.4891700000000  0.4399890000000 1.0
C      1  0.4191300000000  0.5171580000000  0.5155890000000 1.0
C      1  0.5273300000000  0.5167230000000  0.4214250000000 1.0
C      1  0.5507950000000  0.5107260000000  0.5587080000000 1.0
C      1  0.4298510000000  0.4891650000000  0.5504190000000 1.0
C      1  0.5793900000000  0.4880360000000  0.5341270000000 1.0
C      1  0.4916690000000  0.4883980000000  0.4140410000000 1.0
C      1  0.4309180000000  0.5121940000000  0.4484290000000 1.0
C      1  0.5798890000000  0.5126830000000  0.4650710000000 1.0
C      1  0.4917010000000  0.5114380000000  0.5860210000000 1.0
C      1  0.5119760000000  0.4222690000000  0.5252100000000 1.0
C      1  0.5159100000000  0.4224560000000  0.4779930000000 1.0
C      1  0.4731450000000  0.4228840000000  0.4985090000000 1.0
C      1  0.5116640000000  0.5777630000000  0.4751940000000 1.0
C      1  0.5149860000000  0.5772100000000  0.5221320000000 1.0
C      1  0.4726870000000  0.5779310000000  0.5019580000000 1.0
C      1  0.4935890000000  0.5497490000000  0.4275360000000 1.0
C      1  0.4401450000000  0.5504600000000  0.5420170000000 1.0
C      1  0.5648130000000  0.5490770000000  0.5303650000000 1.0
C      1  0.4936430000000  0.4500510000000  0.5732870000000 1.0
C      1  0.4413120000000  0.4511720000000  0.4592040000000 1.0
C      1  0.5655680000000  0.4513980000000  0.4693250000000 1.0
C      1  0.5486050000000  0.5014950000000  0.5294240000000 1.0
C      1  0.5021310000000  0.5021940000000  0.4417580000000 1.0
C      1  0.4485510000000  0.5033330000000  0.5288070000000 1.0
C      1  0.5491700000000  0.4989900000000  0.4691530000000 1.0
C      1  0.5009960000000  0.4970690000000  0.5590930000000 1.0
C      1  0.4504400000000  0.4987550000000  0.4727340000000 1.0
C      1  0.4980580000000  0.5570840000000  0.4389100000000 1.0
C      1  0.4478350000000  0.5576850000000  0.5323440000000 1.0
C      1  0.5531960000000  0.5570230000000  0.5281050000000 1.0
C      1  0.4981640000000  0.4427600000000  0.5618320000000 1.0
C      1  0.4489390000000  0.4432040000000  0.4682640000000 1.0
C      1  0.5539730000000  0.4433640000000  0.4715570000000 1.0
C      1  0.4975790000000  0.4759440000000  0.4669560000000 1.0
C      1  0.4744870000000  0.4782720000000  0.5209510000000 1.0
C      1  0.5305310000000  0.4773930000000  0.5147250000000 1.0
C      1  0.4949180000000  0.5220070000000  0.5325240000000 1.0
C      1  0.4723280000000  0.5228000000000  0.4807410000000 1.0
C      1  0.5304620000000  0.5237450000000  0.4841870000000 1.0
C      1  0.5788950000000  0.4998840000000  0.5250890000000 1.0
C      1  0.4833740000000  0.4998780000000  0.4187910000000 1.0
C      1  0.4377380000000  0.5007060000000  0.5557200000000 1.0
C      1  0.5792440000000  0.5009220000000  0.4742540000000 1.0
C      1  0.4831370000000  0.4998940000000  0.5819050000000 1.0
C      1  0.4390030000000  0.5003330000000  0.4443550000000 1.0
C      1  0.5394340000000  0.4986630000000  0.5392070000000 1.0
C      1  0.5141530000000  0.4972080000000  0.4461130000000 1.0
C      1  0.4476760000000  0.4981750000000  0.5160520000000 1.0
C      1  0.5398400000000  0.5008070000000  0.4592040000000 1.0
C      1  0.5124910000000  0.5021870000000  0.5534600000000 1.0
C      1  0.4466230000000  0.5016100000000  0.4855950000000 1.0
C      1  0.5650760000000  0.5406980000000  0.5167210000000 1.0
C      1  0.4822310000000  0.5406760000000  0.4346750000000 1.0
C      1  0.4520550000000  0.5410900000000  0.5482050000000 1.0
C      1  0.5657080000000  0.4597400000000  0.4829890000000 1.0
C      1  0.4823560000000  0.4594080000000  0.5660120000000 1.0
C      1  0.4531170000000  0.4595360000000  0.4522560000000 1.0
C      1  0.4378840000000  0.4879210000000  0.4534380000000 1.0
C      1  0.4914050000000  0.4866830000000  0.5795260000000 1.0
C      1  0.5720520000000  0.4884060000000  0.4688090000000 1.0
C      1  0.4357140000000  0.5138760000000  0.5472970000000 1.0
C      1  0.4916270000000  0.5128500000000  0.4215520000000 1.0
C      1  0.5715900000000  0.5122920000000  0.5305980000000 1.0
C      1  0.5705020000000  0.4845600000000  0.4543330000000 1.0
C      1  0.4261190000000  0.4842720000000  0.4622390000000 1.0
C      1  0.5039680000000  0.4811890000000  0.5864770000000 1.0
C      1  0.5698090000000  0.5160040000000  0.5451510000000 1.0
C      1  0.4234380000000  0.5193720000000  0.5398610000000 1.0
C      1  0.5038670000000  0.5185990000000  0.4143980000000 1.0
C      1  0.4504790000000  0.5674340000000  0.5026720000000 1.0
C      1  0.5270360000000  0.5661460000000  0.5405010000000 1.0
C      1  0.5220180000000  0.5672150000000  0.4554040000000 1.0
C      1  0.4511380000000  0.4339510000000  0.4974860000000 1.0
C      1  0.5278080000000  0.4330950000000  0.4590870000000 1.0
C      1  0.5226440000000  0.4328100000000  0.5446780000000 1.0
C      1  0.4518450000000  0.5101740000000  0.4453470000000 1.0
C      1  0.4766460000000  0.5104860000000  0.5708780000000 1.0
C      1  0.5717840000000  0.5109430000000  0.4846440000000 1.0
C      1  0.4504980000000  0.4900690000000  0.5558720000000 1.0
C      1  0.4776150000000  0.4893530000000  0.4300280000000 1.0
C      1  0.5715590000000  0.4900410000000  0.5144500000000 1.0
C      1  0.5646350000000  0.4713600000000  0.4571440000000 1.0
C      1  0.4313900000000  0.4711940000000  0.4662540000000 1.0
C      1  0.5045180000000  0.4679400000000  0.5803130000000 1.0
C      1  0.5636760000000  0.5290690000000  0.5424980000000 1.0
C      1  0.4285510000000  0.5325820000000  0.5362350000000 1.0
C      1  0.5041140000000  0.5316270000000  0.4207770000000 1.0
C      1  0.5403280000000  0.5764280000000  0.5233530000000 1.0
C      1  0.5002230000000  0.5767640000000  0.4525350000000 1.0
C      1  0.4588480000000  0.5768960000000  0.5232500000000 1.0
C      1  0.5413220000000  0.4236650000000  0.4764200000000 1.0
C      1  0.5005800000000  0.4234590000000  0.5479060000000 1.0
C      1  0.4592190000000  0.4237170000000  0.4772580000000 1.0
C      1  0.4566980000000  0.5477410000000  0.5254030000000 1.0
C      1  0.5430580000000  0.5471130000000  0.5233620000000 1.0
C      1  0.4991840000000  0.5471570000000  0.4501410000000 1.0
C      1  0.4580680000000  0.4530280000000  0.4747710000000 1.0
C      1  0.5438200000000  0.4531210000000  0.4764130000000 1.0
C      1  0.4997700000000  0.4526190000000  0.5506320000000 1.0
C      1  0.4589770000000  0.5063200000000  0.4227390000000 1.0
C      1  0.4532920000000  0.5068070000000  0.5755270000000 1.0
C      1  0.5876340000000  0.5069680000000  0.5024080000000 1.0
C      1  0.4581850000000  0.4938460000000  0.5783950000000 1.0
C      1  0.4543270000000  0.4933110000000  0.4254110000000 1.0
C      1  0.5877300000000  0.4939540000000  0.4970560000000 1.0
C      1  0.5412590000000  0.4875640000000  0.4915920000000 1.0
C      1  0.4735200000000  0.4869540000000  0.4679110000000 1.0
C      1  0.4854120000000  0.4862030000000  0.5431120000000 1.0
C      1  0.5412630000000  0.5132030000000  0.5069090000000 1.0
C      1  0.4702320000000  0.5141460000000  0.5342230000000 1.0
C      1  0.4869830000000  0.5127290000000  0.4596150000000 1.0
C      1  0.5163590000000  0.5327360000000  0.5686520000000 1.0
C      1  0.5542940000000  0.5354560000000  0.4501840000000 1.0
C      1  0.4311990000000  0.5349630000000  0.4777390000000 1.0
C      1  0.5168810000000  0.4662230000000  0.4296920000000 1.0
C      1  0.5538690000000  0.4653450000000  0.5486730000000 1.0
C      1  0.4324450000000  0.4677180000000  0.5205180000000 1.0
C      1  0.4198500000000  0.4883430000000  0.5401170000000 1.0
C      1  0.5780010000000  0.4854310000000  0.5480270000000 1.0
C      1  0.5054300000000  0.4876990000000  0.4099930000000 1.0
C      1  0.4195920000000  0.5148370000000  0.4565880000000 1.0
C      1  0.5784190000000  0.5152600000000  0.4511730000000 1.0
C      1  0.5056260000000  0.5122450000000  0.5895220000000 1.0
C      1  0.5435550000000  0.4384900000000  0.5395620000000 1.0
C      1  0.5126390000000  0.4381100000000  0.4437540000000 1.0
C      1  0.4451530000000  0.4400140000000  0.5178810000000 1.0
C      1  0.5429360000000  0.5617240000000  0.4604990000000 1.0
C      1  0.5124280000000  0.5602550000000  0.5560580000000 1.0
C      1  0.4443280000000  0.5617540000000  0.4820650000000 1.0
C      1  0.4988680000000  0.5134480000000  0.4344130000000 1.0
C      1  0.4422580000000  0.5144970000000  0.5339710000000 1.0
C      1  0.5568140000000  0.5127930000000  0.5282950000000 1.0
C      1  0.4996780000000  0.4859610000000  0.5672070000000 1.0
C      1  0.4471990000000  0.4874280000000  0.4651350000000 1.0
C      1  0.5573650000000  0.4876840000000  0.4710440000000 1.0
C      1  0.4161500000000  0.5164090000000  0.4798730000000 1.0
C      1  0.5241920000000  0.5096160000000  0.5739250000000 1.0
C      1  0.5600760000000  0.5165430000000  0.4364960000000 1.0
C      1  0.4240700000000  0.4908240000000  0.5161890000000 1.0
C      1  0.5243800000000  0.4902030000000  0.4249970000000 1.0
C      1  0.5596240000000  0.4839210000000  0.5627210000000 1.0
C      1  0.5664620000000  0.4446710000000  0.5159200000000 1.0
C      1  0.4808880000000  0.4444780000000  0.4350100000000 1.0
C      1  0.4533850000000  0.4454190000000  0.5497080000000 1.0
C      1  0.5661850000000  0.5559050000000  0.4840240000000 1.0
C      1  0.4807220000000  0.5550890000000  0.5649940000000 1.0
C      1  0.4532300000000  0.5556510000000  0.4504240000000 1.0
C      1  0.4830240000000  0.5604950000000  0.4680340000000 1.0
C      1  0.4806270000000  0.5598320000000  0.5301720000000 1.0
C      1  0.5355470000000  0.5601630000000  0.5008160000000 1.0
C      1  0.4835200000000  0.4404400000000  0.5323510000000 1.0
C      1  0.4814720000000  0.4401000000000  0.4700020000000 1.0
C      1  0.5362550000000  0.4396290000000  0.4991020000000 1.0
C      1  0.4907640000000  0.5797720000000  0.5195890000000 1.0
C      1  0.5214670000000  0.5795070000000  0.4978180000000 1.0
C      1  0.4873640000000  0.5803370000000  0.4823170000000 1.0
C      1  0.4914070000000  0.4204180000000  0.4809100000000 1.0
C      1  0.5217740000000  0.4197660000000  0.5026960000000 1.0
C      1  0.4876020000000  0.4202950000000  0.5181620000000 1.0
C      1  0.5287680000000  0.4878470000000  0.5644690000000 1.0
C      1  0.5383030000000  0.4915570000000  0.4473290000000 1.0
C      1  0.4375870000000  0.4924940000000  0.4935080000000 1.0
C      1  0.5289770000000  0.5122380000000  0.4348860000000 1.0
C      1  0.5370960000000  0.5078320000000  0.5509420000000 1.0
C      1  0.4300440000000  0.5125410000000  0.5073990000000 1.0
C      1  0.4769550000000  0.5002410000000  0.4910850000000 1.0
C      1  0.5049250000000  0.5027850000000  0.5178110000000 1.0
C      1  0.5189490000000  0.5019600000000  0.4820660000000 1.0
C      1  0.4823230000000  0.4974980000000  0.5047960000000 1.0
C      1  0.5057990000000  0.4982300000000  0.4757250000000 1.0
C      1  0.5194670000000  0.5000230000000  0.5156150000000 1.0
C      1  0.5425320000000  0.4648270000000  0.5379350000000 1.0
C      1  0.5122230000000  0.4643770000000  0.4445440000000 1.0
C      1  0.4477400000000  0.4663370000000  0.5175210000000 1.0
C      1  0.5429240000000  0.5357620000000  0.4611540000000 1.0
C      1  0.5112980000000  0.5339860000000  0.5538900000000 1.0
C      1  0.4462030000000  0.5354350000000  0.4821290000000 1.0
C      1  0.4422780000000  0.4796940000000  0.4416820000000 1.0
C      1  0.4782380000000  0.4797180000000  0.5801880000000 1.0
C      1  0.5800160000000  0.4802160000000  0.4784910000000 1.0
C      1  0.4417530000000  0.5208860000000  0.5589900000000 1.0
C      1  0.4786990000000  0.5202770000000  0.4203770000000 1.0
C      1  0.5796390000000  0.5205440000000  0.5210130000000 1.0
C      1  0.4686090000000  0.5119010000000  0.4891590000000 1.0
C      1  0.4999620000000  0.5076320000000  0.5318620000000 1.0
C      1  0.5260180000000  0.5128600000000  0.4762020000000 1.0
C      1  0.4726380000000  0.4926390000000  0.5161480000000 1.0
C      1  0.5063350000000  0.4869170000000  0.4672990000000 1.0
C      1  0.5252120000000  0.4883950000000  0.5220320000000 1.0
C      1  0.4524270000000  0.5487850000000  0.4875690000000 1.0
C      1  0.5127910000000  0.5474950000000  0.5460470000000 1.0
C      1  0.5343240000000  0.5485840000000  0.4644060000000 1.0
C      1  0.4536330000000  0.4527310000000  0.5124050000000 1.0
C      1  0.5136360000000  0.4513800000000  0.4531510000000 1.0
C      1  0.5347010000000  0.4514510000000  0.5353400000000 1.0
C      1  0.4732240000000  0.4485660000000  0.4926860000000 1.0
C      1  0.5073920000000  0.4482790000000  0.5285130000000 1.0
C      1  0.5211270000000  0.4482200000000  0.4807220000000 1.0
C      1  0.4720230000000  0.5518940000000  0.5076550000000 1.0
C      1  0.5065220000000  0.5519210000000  0.4718400000000 1.0
C      1  0.5201160000000  0.5513770000000  0.5191280000000 1.0
C      1  0.4926300000000  0.5344200000000  0.4453900000000 1.0
C      1  0.4555280000000  0.5351150000000  0.5335620000000 1.0
C      1  0.5505190000000  0.5345850000000  0.5197170000000 1.0
C      1  0.4933190000000  0.4652930000000  0.5556590000000 1.0
C      1  0.4576280000000  0.4655990000000  0.4664570000000 1.0
C      1  0.5511470000000  0.4658340000000  0.4799330000000 1.0
C      1  0.5158530000000  0.5107020000000  0.4146510000000 1.0
C      1  0.4183710000000  0.5112460000000  0.5288520000000 1.0
C      1  0.5639240000000  0.5065800000000  0.5539800000000 1.0
C      1  0.5160610000000  0.4892700000000  0.5853120000000 1.0
C      1  0.4215040000000  0.4937290000000  0.4717780000000 1.0
C      1  0.5648690000000  0.4938250000000  0.4451640000000 1.0
C      1  0.4776790000000  0.4952900000000  0.4449420000000 1.0
C      1  0.4637050000000  0.4955820000000  0.5487610000000 1.0
C      1  0.5590770000000  0.4964630000000  0.5067270000000 1.0
C      1  0.4761640000000  0.5049080000000  0.5559100000000 1.0
C      1  0.4648320000000  0.5037230000000  0.4522470000000 1.0
C      1  0.5590260000000  0.5047630000000  0.4919850000000 1.0
C      1  0.5718470000000  0.5205190000000  0.4733960000000 1.0
C      1  0.4423020000000  0.5198310000000  0.4512450000000 1.0
C      1  0.4870660000000  0.5197910000000  0.5758870000000 1.0
C      1  0.5712420000000  0.4804110000000  0.5256870000000 1.0
C      1  0.4409160000000  0.4807700000000  0.5493960000000 1.0
C      1  0.4876130000000  0.4799810000000  0.4244140000000 1.0
C      1  0.4548770000000  0.5703540000000  0.5345220000000 1.0
C      1  0.5521540000000  0.5699500000000  0.5214840000000 1.0
C      1  0.4926900000000  0.5699530000000  0.4434970000000 1.0
C      1  0.4552110000000  0.4302400000000  0.4659870000000 1.0
C      1  0.5530020000000  0.4304140000000  0.4783210000000 1.0
C      1  0.4927330000000  0.4300820000000  0.5568650000000 1.0
C      1  0.4431830000000  0.5332940000000  0.4566670000000 1.0
C      1  0.4922490000000  0.5327480000000  0.5712260000000 1.0
C      1  0.5664680000000  0.5339380000000  0.4712210000000 1.0
C      1  0.4422880000000  0.4677590000000  0.5426780000000 1.0
C      1  0.4925220000000  0.4667260000000  0.4283410000000 1.0
C      1  0.5660800000000  0.4669800000000  0.5277030000000 1.0
C      1  0.4769790000000  0.4508590000000  0.4479600000000 1.0
C      1  0.4668060000000  0.4515700000000  0.5470180000000 1.0
C      1  0.5570830000000  0.4508510000000  0.5059720000000 1.0
C      1  0.4762970000000  0.5488700000000  0.5520710000000 1.0
C      1  0.4665340000000  0.5494170000000  0.4534950000000 1.0
C      1  0.5568270000000  0.5492600000000  0.4937520000000 1.0
C      1  0.5020680000000  0.4253850000000  0.4740330000000 1.0
C      1  0.4765210000000  0.4257160000000  0.5124820000000 1.0
C      1  0.5224110000000  0.4248620000000  0.5152560000000 1.0
C      1  0.5012680000000  0.5743790000000  0.5262820000000 1.0
C      1  0.4761020000000  0.5753150000000  0.4879720000000 1.0
C      1  0.5220490000000  0.5747200000000  0.4850820000000 1.0
C      1  0.4857070000000  0.4698370000000  0.5186510000000 1.0
C      1  0.5237520000000  0.4691310000000  0.5053400000000 1.0
C      1  0.4929810000000  0.4688050000000  0.4781330000000 1.0
C      1  0.4839130000000  0.5309870000000  0.4818060000000 1.0
C      1  0.5230450000000  0.5308890000000  0.4941820000000 1.0
C      1  0.4913460000000  0.5302990000000  0.5215170000000 1.0
C      1  0.5496090000000  0.4854430000000  0.5042720000000 1.0
C      1  0.4798740000000  0.4841790000000  0.4545390000000 1.0
C      1  0.4707910000000  0.4834510000000  0.5437740000000 1.0
C      1  0.5496770000000  0.5159200000000  0.4946460000000 1.0
C      1  0.4769750000000  0.5169750000000  0.5471990000000 1.0
C      1  0.4717430000000  0.5148350000000  0.4589780000000 1.0
C      1  0.5355260000000  0.5279270000000  0.4186430000000 1.0
C      1  0.4126030000000  0.5282510000000  0.5096810000000 1.0
C      1  0.5497040000000  0.5202950000000  0.5684040000000 1.0
C      1  0.5355240000000  0.4722020000000  0.5807550000000 1.0
C      1  0.4161680000000  0.4800010000000  0.4912770000000 1.0
C      1  0.5514760000000  0.4797820000000  0.4298080000000 1.0
C      1  0.5165760000000  0.4621840000000  0.4829010000000 1.0
C      1  0.4773820000000  0.4625700000000  0.4957210000000 1.0
C      1  0.5081130000000  0.4623610000000  0.5236770000000 1.0
C      1  0.5154070000000  0.5373800000000  0.5168260000000 1.0
C      1  0.4758320000000  0.5378040000000  0.5046040000000 1.0
C      1  0.5068430000000  0.5379320000000  0.4766710000000 1.0
C      1  0.5281090000000  0.5346470000000  0.5075800000000 1.0
C      1  0.4928470000000  0.5347990000000  0.4705380000000 1.0
C      1  0.4770770000000  0.5344730000000  0.5199080000000 1.0
C      1  0.5289650000000  0.4653480000000  0.4920300000000 1.0
C      1  0.4942540000000  0.4657140000000  0.5302160000000 1.0
C      1  0.4789420000000  0.4652980000000  0.4801600000000 1.0
C      1  0.5269710000000  0.4979220000000  0.4378570000000 1.0
C      1  0.4344550000000  0.4986110000000  0.5080420000000 1.0
C      1  0.5260400000000  0.5017680000000  0.5609090000000 1.0
C      1  0.4951340000000  0.5001280000000  0.5086850000000 1.0
END
