TITL C-616442-5639-59 176.327080627956 1000000 -1612.98461806052 0 0 240 (Th) n - 1
REM
REM in /scratch/bkarasulu/Only-C240/Try3-MINAMP_3A
REM
REM
REM
REM
REM
REM ./C.cell (861c01eed278495e92615705e35c7759)
REM
REM compiler GCC version 9.2.1 20190827 (Red Hat 9.2.1-1)
REM options -cpp -mtune=generic -march=x86-64 -g -O0 -fpre-include=/usr/include/finclude/math-vector-fortran.h
REM seed -1660127845 -910679274 1600180639 591015872 -2131135509 391998680 606272310 -1760264968 -1547492346 -851580487 1875386166 734477569 -1590258688 105055684 582806741 -441975182 66719646 -2104839221 523165702 1366174377 -256372819 276582710 -1223468928 589589657 -517572870 695927907 -2024862184 -1824709688 -25499949 -2138618588 -2018393533 -1246874272 610486650
REM
CELL 1.54180  100.00000  100.00000  100.00000   90.00000   90.00000   90.00000
LATT -1
SFAC C  
C      1  0.5305310000000  0.4690620000000  0.5573510000000 1.0
C      1  0.4691570000000  0.5573280000000  0.5304520000000 1.0
C      1  0.5573600000000  0.5305130000000  0.4690690000000 1.0
C      1  0.4695590000000  0.5309380000000  0.5572580000000 1.0
C      1  0.5305180000000  0.5309520000000  0.4426810000000 1.0
C      1  0.4694490000000  0.4690410000000  0.4427040000000 1.0
C      1  0.5308740000000  0.4426930000000  0.5304600000000 1.0
C      1  0.4690770000000  0.4426620000000  0.4695630000000 1.0
C      1  0.5308980000000  0.5573130000000  0.4695270000000 1.0
C      1  0.4426850000000  0.4695220000000  0.4691480000000 1.0
C      1  0.5572890000000  0.4695050000000  0.5308630000000 1.0
C      1  0.4426510000000  0.5305690000000  0.5309380000000 1.0
C      1  0.5304550000000  0.4691280000000  0.4426850000000 1.0
C      1  0.4691540000000  0.5572960000000  0.4695160000000 1.0
C      1  0.5573230000000  0.5304420000000  0.5308320000000 1.0
C      1  0.4695290000000  0.5308930000000  0.4426830000000 1.0
C      1  0.5305520000000  0.5309170000000  0.5573130000000 1.0
C      1  0.4695320000000  0.4691190000000  0.5573400000000 1.0
C      1  0.5309390000000  0.4426880000000  0.4694530000000 1.0
C      1  0.4690320000000  0.4426780000000  0.5305750000000 1.0
C      1  0.5309170000000  0.5572920000000  0.5304470000000 1.0
C      1  0.4426550000000  0.4695270000000  0.5309970000000 1.0
C      1  0.5573190000000  0.4695320000000  0.4690750000000 1.0
C      1  0.4426660000000  0.5305360000000  0.4690640000000 1.0
C      1  0.5348010000000  0.5173640000000  0.5570800000000 1.0
C      1  0.5173710000000  0.5570320000000  0.5347070000000 1.0
C      1  0.5570630000000  0.5346880000000  0.5172860000000 1.0
C      1  0.4652930000000  0.4826710000000  0.5570340000000 1.0
C      1  0.5346920000000  0.4826800000000  0.4429560000000 1.0
C      1  0.4652630000000  0.5173460000000  0.4429460000000 1.0
C      1  0.4825880000000  0.4429650000000  0.5348090000000 1.0
C      1  0.5173850000000  0.4429580000000  0.4652100000000 1.0
C      1  0.4827030000000  0.5570230000000  0.4652710000000 1.0
C      1  0.4429480000000  0.4652660000000  0.5174480000000 1.0
C      1  0.5570360000000  0.4652710000000  0.4826220000000 1.0
C      1  0.4429170000000  0.5347990000000  0.4826130000000 1.0
C      1  0.5347650000000  0.5174000000000  0.4429700000000 1.0
C      1  0.5173510000000  0.5570250000000  0.4652780000000 1.0
C      1  0.5570880000000  0.5347510000000  0.4826240000000 1.0
C      1  0.4651960000000  0.4825930000000  0.4429690000000 1.0
C      1  0.5347920000000  0.4826130000000  0.5570970000000 1.0
C      1  0.4653020000000  0.5173920000000  0.5569780000000 1.0
C      1  0.4826240000000  0.4429280000000  0.4653010000000 1.0
C      1  0.5173280000000  0.4429620000000  0.5347190000000 1.0
C      1  0.4827060000000  0.5570450000000  0.5346950000000 1.0
C      1  0.4429540000000  0.4652830000000  0.4826990000000 1.0
C      1  0.5570260000000  0.4652520000000  0.5173170000000 1.0
C      1  0.4429000000000  0.5348130000000  0.5173810000000 1.0
C      1  0.5375980000000  0.5391250000000  0.4518490000000 1.0
C      1  0.5390690000000  0.4518370000000  0.5375480000000 1.0
C      1  0.4518410000000  0.5376450000000  0.5390910000000 1.0
C      1  0.4623920000000  0.4608680000000  0.4518870000000 1.0
C      1  0.5375700000000  0.4608960000000  0.5481490000000 1.0
C      1  0.4624580000000  0.5391400000000  0.5481300000000 1.0
C      1  0.4609400000000  0.5482070000000  0.5375380000000 1.0
C      1  0.5391120000000  0.5481840000000  0.4624460000000 1.0
C      1  0.4608750000000  0.4518040000000  0.4624830000000 1.0
C      1  0.5481430000000  0.4624220000000  0.5390580000000 1.0
C      1  0.4518080000000  0.4623930000000  0.4609610000000 1.0
C      1  0.5482000000000  0.5376130000000  0.4609030000000 1.0
C      1  0.5376060000000  0.5390650000000  0.5481060000000 1.0
C      1  0.5391100000000  0.4518680000000  0.4623860000000 1.0
C      1  0.4518690000000  0.5375840000000  0.4609050000000 1.0
C      1  0.4623930000000  0.4609080000000  0.5482480000000 1.0
C      1  0.5375870000000  0.4609360000000  0.4517980000000 1.0
C      1  0.4624590000000  0.5390900000000  0.4518360000000 1.0
C      1  0.4609500000000  0.5481640000000  0.4624230000000 1.0
C      1  0.5391110000000  0.5481270000000  0.5375070000000 1.0
C      1  0.4608530000000  0.4518330000000  0.5376680000000 1.0
C      1  0.5481750000000  0.4624620000000  0.4608660000000 1.0
C      1  0.4517980000000  0.4624340000000  0.5391900000000 1.0
C      1  0.5481770000000  0.5375320000000  0.5390180000000 1.0
C      1  0.5409740000000  0.4386880000000  0.5062370000000 1.0
C      1  0.4386400000000  0.5063300000000  0.5410360000000 1.0
C      1  0.5062870000000  0.5409960000000  0.4386410000000 1.0
C      1  0.4590910000000  0.5613810000000  0.5062540000000 1.0
C      1  0.5409720000000  0.5613630000000  0.4937170000000 1.0
C      1  0.4589850000000  0.4386610000000  0.4937900000000 1.0
C      1  0.5613600000000  0.4937090000000  0.5409260000000 1.0
C      1  0.4386700000000  0.4937500000000  0.4590380000000 1.0
C      1  0.5613980000000  0.5062860000000  0.4590040000000 1.0
C      1  0.4936840000000  0.4590020000000  0.4386600000000 1.0
C      1  0.5063030000000  0.4590140000000  0.5613950000000 1.0
C      1  0.4937880000000  0.5410120000000  0.5612830000000 1.0
C      1  0.5409800000000  0.4386590000000  0.4936920000000 1.0
C      1  0.4386390000000  0.5062950000000  0.4590250000000 1.0
C      1  0.5063320000000  0.5409970000000  0.5613230000000 1.0
C      1  0.4590900000000  0.5613730000000  0.4937160000000 1.0
C      1  0.5409810000000  0.5613570000000  0.5062540000000 1.0
C      1  0.4589880000000  0.4386380000000  0.5063340000000 1.0
C      1  0.5613650000000  0.4937440000000  0.4589910000000 1.0
C      1  0.4386500000000  0.4937830000000  0.5410520000000 1.0
C      1  0.5613680000000  0.5062470000000  0.5409170000000 1.0
C      1  0.4937590000000  0.4590220000000  0.5613650000000 1.0
C      1  0.5062280000000  0.4590210000000  0.4386780000000 1.0
C      1  0.4937430000000  0.5409920000000  0.4386650000000 1.0
C      1  0.5069150000000  0.5184920000000  0.5810040000000 1.0
C      1  0.5184520000000  0.5810160000000  0.5067680000000 1.0
C      1  0.5810250000000  0.5067210000000  0.5184060000000 1.0
C      1  0.4934190000000  0.4816670000000  0.5807780000000 1.0
C      1  0.5065660000000  0.4816300000000  0.4192270000000 1.0
C      1  0.4933980000000  0.5183570000000  0.4192340000000 1.0
C      1  0.4815150000000  0.4189760000000  0.5069660000000 1.0
C      1  0.5184690000000  0.4189780000000  0.4930560000000 1.0
C      1  0.4816170000000  0.5810210000000  0.4932060000000 1.0
C      1  0.4191730000000  0.4933090000000  0.5184300000000 1.0
C      1  0.5808290000000  0.4933530000000  0.4816190000000 1.0
C      1  0.4189690000000  0.5069320000000  0.4815380000000 1.0
C      1  0.5069150000000  0.5184630000000  0.4189830000000 1.0
C      1  0.5184370000000  0.5810140000000  0.4932390000000 1.0
C      1  0.5810410000000  0.5068730000000  0.4815460000000 1.0
C      1  0.4930480000000  0.4815160000000  0.4189860000000 1.0
C      1  0.5069370000000  0.4815570000000  0.5810390000000 1.0
C      1  0.4933970000000  0.5184140000000  0.5807620000000 1.0
C      1  0.4816160000000  0.4192260000000  0.4934470000000 1.0
C      1  0.5183510000000  0.4192500000000  0.5065730000000 1.0
C      1  0.4816200000000  0.5810290000000  0.5067350000000 1.0
C      1  0.4192300000000  0.4934140000000  0.4816490000000 1.0
C      1  0.5810200000000  0.4931920000000  0.5184170000000 1.0
C      1  0.4191210000000  0.5068270000000  0.5184350000000 1.0
C      1  0.5155730000000  0.4746560000000  0.5752450000000 1.0
C      1  0.4748730000000  0.5751180000000  0.5154040000000 1.0
C      1  0.5752130000000  0.5155170000000  0.4746900000000 1.0
C      1  0.4846670000000  0.5251730000000  0.5749710000000 1.0
C      1  0.5155500000000  0.5253380000000  0.4248050000000 1.0
C      1  0.4844150000000  0.4746490000000  0.4248190000000 1.0
C      1  0.5251170000000  0.4249980000000  0.5153260000000 1.0
C      1  0.4748400000000  0.4249660000000  0.4846970000000 1.0
C      1  0.5251840000000  0.5751030000000  0.4845720000000 1.0
C      1  0.4249910000000  0.4846600000000  0.4748950000000 1.0
C      1  0.5750960000000  0.4845340000000  0.5251630000000 1.0
C      1  0.4248410000000  0.5155230000000  0.5253110000000 1.0
C      1  0.5153170000000  0.4748730000000  0.4249900000000 1.0
C      1  0.4748690000000  0.5750970000000  0.4845480000000 1.0
C      1  0.5751260000000  0.5153950000000  0.5251550000000 1.0
C      1  0.4846490000000  0.5251290000000  0.4249810000000 1.0
C      1  0.5155660000000  0.5253580000000  0.5751940000000 1.0
C      1  0.4846700000000  0.4749090000000  0.5750160000000 1.0
C      1  0.5253470000000  0.4247990000000  0.4844210000000 1.0
C      1  0.4746430000000  0.4248020000000  0.5156010000000 1.0
C      1  0.5252120000000  0.5751030000000  0.5154250000000 1.0
C      1  0.4249020000000  0.4846040000000  0.5252800000000 1.0
C      1  0.5750430000000  0.4846280000000  0.4748480000000 1.0
C      1  0.4247730000000  0.5155680000000  0.4746480000000 1.0
C      1  0.5342450000000  0.4352000000000  0.4816890000000 1.0
C      1  0.4351910000000  0.4817820000000  0.5342860000000 1.0
C      1  0.4817730000000  0.5341720000000  0.4352220000000 1.0
C      1  0.4658940000000  0.5647840000000  0.4817430000000 1.0
C      1  0.5341790000000  0.5647800000000  0.5182240000000 1.0
C      1  0.4657300000000  0.4351890000000  0.5183380000000 1.0
C      1  0.5648000000000  0.5182130000000  0.5341110000000 1.0
C      1  0.4351780000000  0.5183010000000  0.4657540000000 1.0
C      1  0.5647960000000  0.4817690000000  0.4658070000000 1.0
C      1  0.5182020000000  0.4658380000000  0.4352350000000 1.0
C      1  0.4817850000000  0.4658470000000  0.5647950000000 1.0
C      1  0.5183210000000  0.5342460000000  0.5647920000000 1.0
C      1  0.5341590000000  0.4352380000000  0.5182100000000 1.0
C      1  0.4352330000000  0.4817750000000  0.4658550000000 1.0
C      1  0.4818070000000  0.5342100000000  0.5647190000000 1.0
C      1  0.4658990000000  0.5648070000000  0.5182200000000 1.0
C      1  0.5341580000000  0.5647920000000  0.4817560000000 1.0
C      1  0.4657970000000  0.4352070000000  0.4818150000000 1.0
C      1  0.5648430000000  0.5182770000000  0.4657660000000 1.0
C      1  0.4351760000000  0.5183260000000  0.5342680000000 1.0
C      1  0.5647750000000  0.4817320000000  0.5341300000000 1.0
C      1  0.5183040000000  0.4657540000000  0.5648480000000 1.0
C      1  0.4816790000000  0.4657400000000  0.4352110000000 1.0
C      1  0.5182850000000  0.5342510000000  0.4351920000000 1.0
C      1  0.4711490000000  0.4924380000000  0.5490200000000 1.0
C      1  0.4924500000000  0.5490530000000  0.4712330000000 1.0
C      1  0.5490580000000  0.4711620000000  0.4924010000000 1.0
C      1  0.5287980000000  0.5075630000000  0.5492140000000 1.0
C      1  0.4711350000000  0.5075460000000  0.4509060000000 1.0
C      1  0.5288060000000  0.4924660000000  0.4509280000000 1.0
C      1  0.5075840000000  0.4508250000000  0.4712040000000 1.0
C      1  0.4923720000000  0.4508570000000  0.5288200000000 1.0
C      1  0.5076130000000  0.5490760000000  0.5287470000000 1.0
C      1  0.4507730000000  0.5288040000000  0.4924260000000 1.0
C      1  0.5491140000000  0.5287230000000  0.5075220000000 1.0
C      1  0.4508990000000  0.4711450000000  0.5076450000000 1.0
C      1  0.4711740000000  0.4923940000000  0.4508480000000 1.0
C      1  0.4924610000000  0.5490900000000  0.5287290000000 1.0
C      1  0.5490700000000  0.4711990000000  0.5075550000000 1.0
C      1  0.5287840000000  0.5076180000000  0.4508740000000 1.0
C      1  0.4711560000000  0.5075930000000  0.5490030000000 1.0
C      1  0.5287870000000  0.4924130000000  0.5492310000000 1.0
C      1  0.5075240000000  0.4509270000000  0.5288560000000 1.0
C      1  0.4924300000000  0.4508820000000  0.4711730000000 1.0
C      1  0.5076010000000  0.5490560000000  0.4712320000000 1.0
C      1  0.4507910000000  0.5288470000000  0.5075780000000 1.0
C      1  0.5491470000000  0.5287490000000  0.4923720000000 1.0
C      1  0.4509310000000  0.4711460000000  0.4924900000000 1.0
C      1  0.4588000000000  0.5182800000000  0.5124420000000 1.0
C      1  0.5181480000000  0.5124320000000  0.4588050000000 1.0
C      1  0.5123660000000  0.4590440000000  0.5183540000000 1.0
C      1  0.5410120000000  0.4817550000000  0.5123750000000 1.0
C      1  0.4590230000000  0.4816800000000  0.4876640000000 1.0
C      1  0.5411650000000  0.5181760000000  0.4874930000000 1.0
C      1  0.4818070000000  0.4875950000000  0.4587950000000 1.0
C      1  0.5181820000000  0.4875780000000  0.5412600000000 1.0
C      1  0.4817090000000  0.5123940000000  0.5409390000000 1.0
C      1  0.4876210000000  0.5410290000000  0.5181920000000 1.0
C      1  0.5124490000000  0.5409950000000  0.4817640000000 1.0
C      1  0.4875880000000  0.4590000000000  0.4816740000000 1.0
C      1  0.4587230000000  0.5181680000000  0.4876280000000 1.0
C      1  0.5182170000000  0.5124030000000  0.5412090000000 1.0
C      1  0.5123860000000  0.4587590000000  0.4818460000000 1.0
C      1  0.5409800000000  0.4816740000000  0.4875470000000 1.0
C      1  0.4588910000000  0.4817350000000  0.5124640000000 1.0
C      1  0.5410500000000  0.5181800000000  0.5123560000000 1.0
C      1  0.4816820000000  0.4875950000000  0.5409460000000 1.0
C      1  0.5182940000000  0.4876150000000  0.4590360000000 1.0
C      1  0.4816300000000  0.5123940000000  0.4590320000000 1.0
C      1  0.4875970000000  0.5409840000000  0.4817620000000 1.0
C      1  0.5124640000000  0.5410000000000  0.5182280000000 1.0
C      1  0.4875580000000  0.4587870000000  0.5181770000000 1.0
C      1  0.4618320000000  0.4933360000000  0.4844330000000 1.0
C      1  0.4934590000000  0.4843570000000  0.4615840000000 1.0
C      1  0.4843700000000  0.4618310000000  0.4933320000000 1.0
C      1  0.5383720000000  0.5065090000000  0.4843090000000 1.0
C      1  0.4615100000000  0.5065980000000  0.5156680000000 1.0
C      1  0.5380490000000  0.4933720000000  0.5155800000000 1.0
C      1  0.5064770000000  0.5156380000000  0.4615650000000 1.0
C      1  0.4933750000000  0.5155950000000  0.5381340000000 1.0
C      1  0.5065280000000  0.4843500000000  0.5384590000000 1.0
C      1  0.5156290000000  0.5380420000000  0.4933940000000 1.0
C      1  0.4844060000000  0.5380400000000  0.5065840000000 1.0
C      1  0.5155710000000  0.4618480000000  0.5066860000000 1.0
C      1  0.4615760000000  0.4934260000000  0.5156790000000 1.0
C      1  0.4933480000000  0.4843820000000  0.5381520000000 1.0
C      1  0.4843290000000  0.4615470000000  0.5065130000000 1.0
C      1  0.5380610000000  0.5065740000000  0.5155750000000 1.0
C      1  0.4615290000000  0.5065180000000  0.4843930000000 1.0
C      1  0.5381410000000  0.4933270000000  0.4843330000000 1.0
C      1  0.5065570000000  0.5156120000000  0.5384070000000 1.0
C      1  0.4932960000000  0.5155970000000  0.4618480000000 1.0
C      1  0.5066400000000  0.4843970000000  0.4618650000000 1.0
C      1  0.5156270000000  0.5380470000000  0.5065930000000 1.0
C      1  0.4844080000000  0.5380240000000  0.4933840000000 1.0
C      1  0.5156160000000  0.4615320000000  0.4935070000000 1.0
END
