TITL C-616442-5639-52 0.0539157029702488 1000000 -3672.81354367879 0 0 520 (C2h) n - 1
REM
REM in /scratch/bkarasulu/Only-C240/Try3-MINAMP_3A
REM
REM
REM
REM
REM
REM ./C.cell (861c01eed278495e92615705e35c7759)
REM
REM compiler GCC version 9.2.1 20190827 (Red Hat 9.2.1-1)
REM options -cpp -mtune=generic -march=x86-64 -g -O0 -fpre-include=/usr/include/finclude/math-vector-fortran.h
REM seed 373581982 -1706033914 -2109562535 -831486922 442002028 1163976017 848350022 1984221104 -343633021 407882591 967696960 -568152752 -283479256 -673582919 -1866825540 549422377 1590744940 1611950640 -1558782317 -1290136758 -154294784 499506701 -736376961 1108571864 -798146605 1376397384 -1963598548 2012863661 2130956062 -1512097593 -423503005 -2057255265 885998906
REM
CELL 1.54180  100.00000  100.00000  100.00000   90.00000   90.00000   90.00000
LATT -1
SFAC C  
C      1  0.4696350000000  0.5382500000000  0.5748640000000 1.0
C      1  0.4696350000000  0.4617500000000  0.4251360000000 1.0
C      1  0.5303650000000  0.5382500000000  0.5748640000000 1.0
C      1  0.5303650000000  0.4617500000000  0.4251360000000 1.0
C      1  0.4490950000000  0.5249970000000  0.5038870000000 1.0
C      1  0.4490950000000  0.4750030000000  0.4961130000000 1.0
C      1  0.5509050000000  0.5249970000000  0.5038870000000 1.0
C      1  0.5509050000000  0.4750030000000  0.4961130000000 1.0
C      1  0.4408530000000  0.4443430000000  0.5426210000000 1.0
C      1  0.4408540000000  0.5556580000000  0.4573790000000 1.0
C      1  0.5591460000000  0.4443420000000  0.5426210000000 1.0
C      1  0.5591470000000  0.5556570000000  0.4573790000000 1.0
C      1  0.5163970000000  0.5134960000000  0.4259080000000 1.0
C      1  0.5163970000000  0.4865030000000  0.5740920000000 1.0
C      1  0.4836030000000  0.5134970000000  0.4259080000000 1.0
C      1  0.4836030000000  0.4865040000000  0.5740920000000 1.0
C      1  0.4704980000000  0.5078140000000  0.4711160000000 1.0
C      1  0.4704970000000  0.4921860000000  0.5288840000000 1.0
C      1  0.5295030000000  0.5078140000000  0.4711160000000 1.0
C      1  0.5295020000000  0.4921860000000  0.5288840000000 1.0
C      1  0.4317520000000  0.4634970000000  0.5129020000000 1.0
C      1  0.4317520000000  0.5365040000000  0.4870980000000 1.0
C      1  0.5682480000000  0.4634960000000  0.5129020000000 1.0
C      1  0.5682480000000  0.5365030000000  0.4870980000000 1.0
C      1  0.4536490000000  0.5723130000000  0.4684820000000 1.0
C      1  0.4536470000000  0.4276880000000  0.5315170000000 1.0
C      1  0.5463530000000  0.5723120000000  0.4684830000000 1.0
C      1  0.5463510000000  0.4276870000000  0.5315180000000 1.0
C      1  0.4683960000000  0.4766690000000  0.4254430000000 1.0
C      1  0.4683960000000  0.5233310000000  0.5745560000000 1.0
C      1  0.5316040000000  0.4766690000000  0.4254440000000 1.0
C      1  0.5316040000000  0.5233310000000  0.5745570000000 1.0
C      1  0.5482940000000  0.4782130000000  0.5213790000000 1.0
C      1  0.5482940000000  0.5217860000000  0.4786220000000 1.0
C      1  0.4517060000000  0.4782140000000  0.5213780000000 1.0
C      1  0.4517060000000  0.5217870000000  0.4786210000000 1.0
C      1  0.5776560000000  0.5138670000000  0.4619400000000 1.0
C      1  0.5776560000000  0.4861320000000  0.5380610000000 1.0
C      1  0.4223440000000  0.5138680000000  0.4619390000000 1.0
C      1  0.4223440000000  0.4861330000000  0.5380600000000 1.0
C      1  0.5081950000000  0.4793730000000  0.5118320000000 1.0
C      1  0.5081960000000  0.5206260000000  0.4881680000000 1.0
C      1  0.4918040000000  0.4793740000000  0.5118320000000 1.0
C      1  0.4918050000000  0.5206270000000  0.4881680000000 1.0
C      1  0.4806300000000  0.4198940000000  0.4864480000000 1.0
C      1  0.4806310000000  0.5801060000000  0.5135520000000 1.0
C      1  0.5193690000000  0.4198940000000  0.4864480000000 1.0
C      1  0.5193700000000  0.5801060000000  0.5135520000000 1.0
C      1  0.4255760000000  0.5212900000000  0.5413840000000 1.0
C      1  0.4255750000000  0.4787110000000  0.4586160000000 1.0
C      1  0.5744250000000  0.5212890000000  0.5413840000000 1.0
C      1  0.5744240000000  0.4787100000000  0.4586160000000 1.0
C      1  0.5078870000000  0.4404540000000  0.5218430000000 1.0
C      1  0.5078880000000  0.5595460000000  0.4781570000000 1.0
C      1  0.4921120000000  0.4404540000000  0.5218430000000 1.0
C      1  0.4921130000000  0.5595460000000  0.4781570000000 1.0
C      1  0.4878970000000  0.5446360000000  0.5262960000000 1.0
C      1  0.4878960000000  0.4553640000000  0.4737040000000 1.0
C      1  0.5121040000000  0.5446360000000  0.5262960000000 1.0
C      1  0.5121030000000  0.4553640000000  0.4737040000000 1.0
C      1  0.4271000000000  0.5080690000000  0.5482560000000 1.0
C      1  0.4271000000000  0.4919320000000  0.4517440000000 1.0
C      1  0.5729000000000  0.5080680000000  0.5482560000000 1.0
C      1  0.5729000000000  0.4919310000000  0.4517440000000 1.0
C      1  0.5077800000000  0.4733380000000  0.4444740000000 1.0
C      1  0.5077800000000  0.5266620000000  0.5555260000000 1.0
C      1  0.4922200000000  0.4733380000000  0.4444740000000 1.0
C      1  0.4922200000000  0.5266620000000  0.5555260000000 1.0
C      1  0.4330060000000  0.5114120000000  0.4393080000000 1.0
C      1  0.4330050000000  0.4885890000000  0.5606920000000 1.0
C      1  0.5669950000000  0.5114110000000  0.4393080000000 1.0
C      1  0.5669940000000  0.4885880000000  0.5606920000000 1.0
C      1  0.5793500000000  0.5152320000000  0.5069280000000 1.0
C      1  0.5793500000000  0.4847670000000  0.4930720000000 1.0
C      1  0.4206500000000  0.5152330000000  0.5069280000000 1.0
C      1  0.4206500000000  0.4847680000000  0.4930720000000 1.0
C      1  0.4565170000000  0.4841460000000  0.5688070000000 1.0
C      1  0.4565170000000  0.5158540000000  0.4311930000000 1.0
C      1  0.5434830000000  0.4841460000000  0.5688070000000 1.0
C      1  0.5434830000000  0.5158540000000  0.4311930000000 1.0
C      1  0.4931310000000  0.4689850000000  0.5488560000000 1.0
C      1  0.4931320000000  0.5310150000000  0.4511440000000 1.0
C      1  0.5068680000000  0.4689850000000  0.5488560000000 1.0
C      1  0.5068690000000  0.5310150000000  0.4511440000000 1.0
C      1  0.5189630000000  0.5166580000000  0.5754440000000 1.0
C      1  0.5189630000000  0.4833410000000  0.4245560000000 1.0
C      1  0.4810370000000  0.5166590000000  0.5754440000000 1.0
C      1  0.4810370000000  0.4833420000000  0.4245560000000 1.0
C      1  0.4711480000000  0.5524330000000  0.4400470000000 1.0
C      1  0.4711470000000  0.4475670000000  0.5599530000000 1.0
C      1  0.5288530000000  0.5524330000000  0.4400470000000 1.0
C      1  0.5288520000000  0.4475670000000  0.5599530000000 1.0
C      1  0.4555730000000  0.4625450000000  0.4923930000000 1.0
C      1  0.4555740000000  0.5374550000000  0.5076070000000 1.0
C      1  0.5444260000000  0.4625450000000  0.4923930000000 1.0
C      1  0.5444270000000  0.5374550000000  0.5076070000000 1.0
C      1  0.4199560000000  0.4739360000000  0.4839520000000 1.0
C      1  0.4199570000000  0.5260650000000  0.5160480000000 1.0
C      1  0.5800430000000  0.4739350000000  0.4839520000000 1.0
C      1  0.5800440000000  0.5260640000000  0.5160480000000 1.0
C      1  0.4686480000000  0.5398620000000  0.5143080000000 1.0
C      1  0.4686480000000  0.4601380000000  0.4856920000000 1.0
C      1  0.5313520000000  0.5398620000000  0.5143080000000 1.0
C      1  0.5313520000000  0.4601380000000  0.4856920000000 1.0
C      1  0.5270250000000  0.4584370000000  0.4713200000000 1.0
C      1  0.5270260000000  0.5415620000000  0.5286800000000 1.0
C      1  0.4729740000000  0.4584380000000  0.4713200000000 1.0
C      1  0.4729750000000  0.5415630000000  0.5286800000000 1.0
C      1  0.4277600000000  0.5274140000000  0.4627890000000 1.0
C      1  0.4277590000000  0.4725870000000  0.5372110000000 1.0
C      1  0.5722410000000  0.5274130000000  0.4627890000000 1.0
C      1  0.5722400000000  0.4725860000000  0.5372110000000 1.0
C      1  0.5177100000000  0.4551060000000  0.4259560000000 1.0
C      1  0.5177100000000  0.5448940000000  0.5740440000000 1.0
C      1  0.4822900000000  0.4551060000000  0.4259560000000 1.0
C      1  0.4822900000000  0.5448940000000  0.5740440000000 1.0
C      1  0.4507260000000  0.4266050000000  0.5051260000000 1.0
C      1  0.4507270000000  0.5733950000000  0.4948740000000 1.0
C      1  0.5492730000000  0.4266050000000  0.5051260000000 1.0
C      1  0.5492740000000  0.5733950000000  0.4948740000000 1.0
C      1  0.4545340000000  0.5360270000000  0.5572180000000 1.0
C      1  0.4545340000000  0.4639740000000  0.4427820000000 1.0
C      1  0.5454660000000  0.5360260000000  0.5572180000000 1.0
C      1  0.5454660000000  0.4639730000000  0.4427820000000 1.0
C      1  0.4488740000000  0.5468540000000  0.4494490000000 1.0
C      1  0.4488730000000  0.4531460000000  0.5505500000000 1.0
C      1  0.5511270000000  0.5468540000000  0.4494500000000 1.0
C      1  0.5511260000000  0.4531460000000  0.5505510000000 1.0
C      1  0.4865900000000  0.4726180000000  0.5361590000000 1.0
C      1  0.4865910000000  0.5273820000000  0.4638410000000 1.0
C      1  0.5134090000000  0.4726180000000  0.5361590000000 1.0
C      1  0.5134100000000  0.5273820000000  0.4638410000000 1.0
C      1  0.5313420000000  0.4439770000000  0.4391790000000 1.0
C      1  0.5313420000000  0.5560230000000  0.5608210000000 1.0
C      1  0.4686580000000  0.4439770000000  0.4391790000000 1.0
C      1  0.4686580000000  0.5560230000000  0.5608210000000 1.0
C      1  0.4147830000000  0.4975620000000  0.4932310000000 1.0
C      1  0.4147830000000  0.5024390000000  0.5067690000000 1.0
C      1  0.5852170000000  0.4975610000000  0.4932310000000 1.0
C      1  0.5852170000000  0.5024380000000  0.5067690000000 1.0
C      1  0.4340070000000  0.4484870000000  0.5310820000000 1.0
C      1  0.4340080000000  0.5515140000000  0.4689180000000 1.0
C      1  0.5659920000000  0.4484860000000  0.5310820000000 1.0
C      1  0.5659930000000  0.5515130000000  0.4689180000000 1.0
C      1  0.5418200000000  0.5143810000000  0.5067490000000 1.0
C      1  0.5418200000000  0.4856180000000  0.4932510000000 1.0
C      1  0.4581800000000  0.5143820000000  0.5067490000000 1.0
C      1  0.4581800000000  0.4856190000000  0.4932510000000 1.0
C      1  0.5796440000000  0.5382760000000  0.5082810000000 1.0
C      1  0.5796440000000  0.4617230000000  0.4917190000000 1.0
C      1  0.4203560000000  0.5382770000000  0.5082810000000 1.0
C      1  0.4203560000000  0.4617240000000  0.4917190000000 1.0
C      1  0.4925210000000  0.5611460000000  0.4531370000000 1.0
C      1  0.4925200000000  0.4388540000000  0.5468630000000 1.0
C      1  0.5074800000000  0.5611460000000  0.4531370000000 1.0
C      1  0.5074790000000  0.4388540000000  0.5468630000000 1.0
C      1  0.4828060000000  0.4390350000000  0.5002760000000 1.0
C      1  0.4828070000000  0.5609650000000  0.4997240000000 1.0
C      1  0.5171930000000  0.4390350000000  0.5002760000000 1.0
C      1  0.5171940000000  0.5609650000000  0.4997240000000 1.0
C      1  0.5275280000000  0.4616800000000  0.5642700000000 1.0
C      1  0.5275290000000  0.5383200000000  0.4357300000000 1.0
C      1  0.4724710000000  0.4616800000000  0.5642700000000 1.0
C      1  0.4724720000000  0.5383200000000  0.4357300000000 1.0
C      1  0.5487720000000  0.4875400000000  0.4562390000000 1.0
C      1  0.5487720000000  0.5124590000000  0.5437610000000 1.0
C      1  0.4512280000000  0.4875410000000  0.4562390000000 1.0
C      1  0.4512280000000  0.5124600000000  0.5437610000000 1.0
C      1  0.4461400000000  0.4928100000000  0.4326780000000 1.0
C      1  0.4461400000000  0.5071900000000  0.5673220000000 1.0
C      1  0.5538600000000  0.4928100000000  0.4326780000000 1.0
C      1  0.5538600000000  0.5071900000000  0.5673220000000 1.0
C      1  0.4931430000000  0.5483080000000  0.4339780000000 1.0
C      1  0.4931420000000  0.4516920000000  0.5660220000000 1.0
C      1  0.5068580000000  0.5483080000000  0.4339780000000 1.0
C      1  0.5068570000000  0.4516920000000  0.5660220000000 1.0
C      1  0.5451710000000  0.5454230000000  0.4960630000000 1.0
C      1  0.5451700000000  0.4545760000000  0.5039370000000 1.0
C      1  0.4548300000000  0.5454240000000  0.4960630000000 1.0
C      1  0.4548290000000  0.4545770000000  0.5039370000000 1.0
C      1  0.5069440000000  0.4904980000000  0.5220040000000 1.0
C      1  0.5069440000000  0.5095020000000  0.4779960000000 1.0
C      1  0.4930560000000  0.4904980000000  0.5220040000000 1.0
C      1  0.4930560000000  0.5095020000000  0.4779960000000 1.0
C      1  0.5754050000000  0.4709570000000  0.4707840000000 1.0
C      1  0.5754050000000  0.5290420000000  0.5292170000000 1.0
C      1  0.4245950000000  0.4709580000000  0.4707830000000 1.0
C      1  0.4245950000000  0.5290430000000  0.5292160000000 1.0
C      1  0.4680040000000  0.4419170000000  0.4831540000000 1.0
C      1  0.4680050000000  0.5580840000000  0.5168450000000 1.0
C      1  0.5319950000000  0.4419160000000  0.4831550000000 1.0
C      1  0.5319960000000  0.5580830000000  0.5168460000000 1.0
C      1  0.5389510000000  0.5453150000000  0.5654880000000 1.0
C      1  0.5389500000000  0.4546840000000  0.4345120000000 1.0
C      1  0.4610500000000  0.5453160000000  0.5654880000000 1.0
C      1  0.4610490000000  0.4546850000000  0.4345120000000 1.0
C      1  0.4559970000000  0.5156390000000  0.5719860000000 1.0
C      1  0.4559970000000  0.4843610000000  0.4280140000000 1.0
C      1  0.5440030000000  0.5156390000000  0.5719860000000 1.0
C      1  0.5440030000000  0.4843610000000  0.4280140000000 1.0
C      1  0.5466410000000  0.5625500000000  0.5177910000000 1.0
C      1  0.5466400000000  0.4374500000000  0.4822090000000 1.0
C      1  0.4533600000000  0.5625500000000  0.5177910000000 1.0
C      1  0.4533590000000  0.4374500000000  0.4822090000000 1.0
C      1  0.4742540000000  0.5483590000000  0.4654870000000 1.0
C      1  0.4742530000000  0.4516410000000  0.5345130000000 1.0
C      1  0.5257470000000  0.5483590000000  0.4654870000000 1.0
C      1  0.5257460000000  0.4516410000000  0.5345130000000 1.0
C      1  0.5548270000000  0.5070030000000  0.4324840000000 1.0
C      1  0.5548270000000  0.4929960000000  0.5675160000000 1.0
C      1  0.4451730000000  0.5070040000000  0.4324840000000 1.0
C      1  0.4451730000000  0.4929970000000  0.5675160000000 1.0
C      1  0.5147420000000  0.5581560000000  0.4651990000000 1.0
C      1  0.5147410000000  0.4418440000000  0.5348020000000 1.0
C      1  0.4852590000000  0.5581560000000  0.4651980000000 1.0
C      1  0.4852580000000  0.4418440000000  0.5348010000000 1.0
C      1  0.4452110000000  0.4338990000000  0.4932950000000 1.0
C      1  0.4452120000000  0.5661010000000  0.5067040000000 1.0
C      1  0.5547880000000  0.4338990000000  0.4932960000000 1.0
C      1  0.5547890000000  0.5661010000000  0.5067050000000 1.0
C      1  0.4365200000000  0.5238190000000  0.4424280000000 1.0
C      1  0.4365200000000  0.4761820000000  0.5575720000000 1.0
C      1  0.5634800000000  0.5238180000000  0.4424280000000 1.0
C      1  0.5634800000000  0.4761810000000  0.5575720000000 1.0
C      1  0.5073400000000  0.4759420000000  0.5714260000000 1.0
C      1  0.5073410000000  0.5240580000000  0.4285740000000 1.0
C      1  0.4926590000000  0.4759420000000  0.5714260000000 1.0
C      1  0.4926600000000  0.5240580000000  0.4285740000000 1.0
C      1  0.4220420000000  0.4931140000000  0.5143380000000 1.0
C      1  0.4220420000000  0.5068870000000  0.4856620000000 1.0
C      1  0.5779580000000  0.4931130000000  0.5143380000000 1.0
C      1  0.5779580000000  0.5068860000000  0.4856620000000 1.0
C      1  0.4752780000000  0.4649410000000  0.5396980000000 1.0
C      1  0.4752790000000  0.5350600000000  0.4603020000000 1.0
C      1  0.5247210000000  0.4649400000000  0.5396980000000 1.0
C      1  0.5247220000000  0.5350590000000  0.4603020000000 1.0
C      1  0.4408100000000  0.5018360000000  0.4705890000000 1.0
C      1  0.4408100000000  0.4981650000000  0.5294110000000 1.0
C      1  0.5591900000000  0.5018350000000  0.4705890000000 1.0
C      1  0.5591900000000  0.4981640000000  0.5294110000000 1.0
C      1  0.5077120000000  0.5244260000000  0.5714000000000 1.0
C      1  0.5077120000000  0.4755740000000  0.4286000000000 1.0
C      1  0.4922880000000  0.5244260000000  0.5714000000000 1.0
C      1  0.4922880000000  0.4755740000000  0.4286000000000 1.0
C      1  0.5736490000000  0.4950330000000  0.5274440000000 1.0
C      1  0.5736500000000  0.5049660000000  0.4725570000000 1.0
C      1  0.4263500000000  0.4950340000000  0.5274430000000 1.0
C      1  0.4263510000000  0.5049670000000  0.4725560000000 1.0
C      1  0.5068290000000  0.5377270000000  0.5785410000000 1.0
C      1  0.5068290000000  0.4622730000000  0.4214590000000 1.0
C      1  0.4931710000000  0.5377270000000  0.5785410000000 1.0
C      1  0.4931710000000  0.4622730000000  0.4214590000000 1.0
C      1  0.5078330000000  0.5601420000000  0.5252210000000 1.0
C      1  0.5078320000000  0.4398570000000  0.4747790000000 1.0
C      1  0.4921680000000  0.5601430000000  0.5252210000000 1.0
C      1  0.4921670000000  0.4398580000000  0.4747790000000 1.0
C      1  0.5278100000000  0.4333510000000  0.4472180000000 1.0
C      1  0.5278100000000  0.5666490000000  0.5527820000000 1.0
C      1  0.4721900000000  0.4333510000000  0.4472180000000 1.0
C      1  0.4721900000000  0.5666490000000  0.5527820000000 1.0
C      1  0.5455040000000  0.5358430000000  0.4722790000000 1.0
C      1  0.5455040000000  0.4641560000000  0.5277210000000 1.0
C      1  0.4544960000000  0.5358440000000  0.4722790000000 1.0
C      1  0.4544960000000  0.4641570000000  0.5277210000000 1.0
C      1  0.4924620000000  0.5320410000000  0.4777810000000 1.0
C      1  0.4924620000000  0.4679590000000  0.5222190000000 1.0
C      1  0.5075380000000  0.5320410000000  0.4777810000000 1.0
C      1  0.5075380000000  0.4679590000000  0.5222190000000 1.0
C      1  0.4872090000000  0.4313810000000  0.5109710000000 1.0
C      1  0.4872100000000  0.5686200000000  0.4890290000000 1.0
C      1  0.5127900000000  0.4313800000000  0.5109710000000 1.0
C      1  0.5127910000000  0.5686190000000  0.4890290000000 1.0
C      1  0.5129860000000  0.4651190000000  0.5635030000000 1.0
C      1  0.5129870000000  0.5348810000000  0.4364970000000 1.0
C      1  0.4870130000000  0.4651190000000  0.5635030000000 1.0
C      1  0.4870140000000  0.5348810000000  0.4364970000000 1.0
C      1  0.4296330000000  0.4857780000000  0.5049860000000 1.0
C      1  0.4296330000000  0.5142230000000  0.4950140000000 1.0
C      1  0.5703670000000  0.4857770000000  0.5049860000000 1.0
C      1  0.5703670000000  0.5142220000000  0.4950140000000 1.0
C      1  0.4386420000000  0.4417940000000  0.5194070000000 1.0
C      1  0.4386430000000  0.5582070000000  0.4805930000000 1.0
C      1  0.5613570000000  0.4417930000000  0.5194070000000 1.0
C      1  0.5613580000000  0.5582060000000  0.4805930000000 1.0
C      1  0.4511830000000  0.4443720000000  0.4698540000000 1.0
C      1  0.4511840000000  0.5556280000000  0.5301460000000 1.0
C      1  0.5488160000000  0.4443720000000  0.4698540000000 1.0
C      1  0.5488170000000  0.5556280000000  0.5301460000000 1.0
C      1  0.5169580000000  0.5502020000000  0.5594780000000 1.0
C      1  0.5169570000000  0.4497980000000  0.4405220000000 1.0
C      1  0.4830430000000  0.5502020000000  0.5594780000000 1.0
C      1  0.4830420000000  0.4497980000000  0.4405220000000 1.0
C      1  0.4735500000000  0.5323120000000  0.5401520000000 1.0
C      1  0.4735500000000  0.4676890000000  0.4598480000000 1.0
C      1  0.5264500000000  0.5323110000000  0.5401520000000 1.0
C      1  0.5264500000000  0.4676880000000  0.4598480000000 1.0
C      1  0.5356260000000  0.5116030000000  0.5495180000000 1.0
C      1  0.5356260000000  0.4883960000000  0.4504820000000 1.0
C      1  0.4643740000000  0.5116040000000  0.5495180000000 1.0
C      1  0.4643740000000  0.4883970000000  0.4504820000000 1.0
C      1  0.5069200000000  0.4625160000000  0.4854580000000 1.0
C      1  0.5069210000000  0.5374840000000  0.5145420000000 1.0
C      1  0.4930790000000  0.4625160000000  0.4854580000000 1.0
C      1  0.4930800000000  0.5374840000000  0.5145420000000 1.0
C      1  0.5645030000000  0.5558710000000  0.5050500000000 1.0
C      1  0.5645020000000  0.4441280000000  0.4949510000000 1.0
C      1  0.4354980000000  0.5558720000000  0.5050490000000 1.0
C      1  0.4354970000000  0.4441290000000  0.4949500000000 1.0
C      1  0.4844140000000  0.5116340000000  0.4662560000000 1.0
C      1  0.4844130000000  0.4883660000000  0.5337440000000 1.0
C      1  0.5155870000000  0.5116340000000  0.4662560000000 1.0
C      1  0.5155860000000  0.4883660000000  0.5337440000000 1.0
C      1  0.4812030000000  0.4780690000000  0.5016240000000 1.0
C      1  0.4812030000000  0.5219310000000  0.4983760000000 1.0
C      1  0.5187970000000  0.4780690000000  0.5016240000000 1.0
C      1  0.5187970000000  0.5219310000000  0.4983760000000 1.0
C      1  0.4480110000000  0.5135080000000  0.4653690000000 1.0
C      1  0.4480110000000  0.4864930000000  0.5346310000000 1.0
C      1  0.5519890000000  0.5135070000000  0.4653690000000 1.0
C      1  0.5519890000000  0.4864920000000  0.5346310000000 1.0
C      1  0.5131390000000  0.4368880000000  0.4477440000000 1.0
C      1  0.5131390000000  0.5631110000000  0.5522560000000 1.0
C      1  0.4868610000000  0.4368890000000  0.4477440000000 1.0
C      1  0.4868610000000  0.5631120000000  0.5522560000000 1.0
C      1  0.5191390000000  0.5468950000000  0.4952350000000 1.0
C      1  0.5191390000000  0.4531050000000  0.5047660000000 1.0
C      1  0.4808610000000  0.5468950000000  0.4952340000000 1.0
C      1  0.4808610000000  0.4531050000000  0.5047650000000 1.0
C      1  0.4876820000000  0.4847870000000  0.4523420000000 1.0
C      1  0.4876820000000  0.5152130000000  0.5476580000000 1.0
C      1  0.5123180000000  0.4847870000000  0.4523420000000 1.0
C      1  0.5123180000000  0.5152130000000  0.5476580000000 1.0
C      1  0.4922010000000  0.5034350000000  0.5548440000000 1.0
C      1  0.4922010000000  0.4965660000000  0.4451560000000 1.0
C      1  0.5077990000000  0.5034340000000  0.5548440000000 1.0
C      1  0.5077990000000  0.4965650000000  0.4451560000000 1.0
C      1  0.4590970000000  0.5567210000000  0.4462080000000 1.0
C      1  0.4590960000000  0.4432790000000  0.5537920000000 1.0
C      1  0.5409040000000  0.5567210000000  0.4462080000000 1.0
C      1  0.5409030000000  0.4432790000000  0.5537920000000 1.0
C      1  0.4750590000000  0.5170630000000  0.5399960000000 1.0
C      1  0.4750590000000  0.4829370000000  0.4600040000000 1.0
C      1  0.5249410000000  0.5170630000000  0.5399960000000 1.0
C      1  0.5249410000000  0.4829370000000  0.4600040000000 1.0
C      1  0.5644420000000  0.5270920000000  0.5502150000000 1.0
C      1  0.5644420000000  0.4729080000000  0.4497860000000 1.0
C      1  0.4355580000000  0.5270920000000  0.5502140000000 1.0
C      1  0.4355580000000  0.4729080000000  0.4497850000000 1.0
C      1  0.5380720000000  0.5122930000000  0.4589750000000 1.0
C      1  0.5380710000000  0.4877070000000  0.5410250000000 1.0
C      1  0.4619290000000  0.5122930000000  0.4589750000000 1.0
C      1  0.4619280000000  0.4877070000000  0.5410250000000 1.0
C      1  0.4843980000000  0.4622560000000  0.4506150000000 1.0
C      1  0.4843980000000  0.5377450000000  0.5493850000000 1.0
C      1  0.5156020000000  0.4622550000000  0.4506150000000 1.0
C      1  0.5156020000000  0.5377440000000  0.5493850000000 1.0
C      1  0.4292520000000  0.4617780000000  0.5280860000000 1.0
C      1  0.4292520000000  0.5382230000000  0.4719140000000 1.0
C      1  0.5707480000000  0.4617770000000  0.5280860000000 1.0
C      1  0.5707480000000  0.5382220000000  0.4719140000000 1.0
C      1  0.4396480000000  0.4508570000000  0.5080990000000 1.0
C      1  0.4396490000000  0.5491440000000  0.4919000000000 1.0
C      1  0.5603510000000  0.4508560000000  0.5081000000000 1.0
C      1  0.5603520000000  0.5491430000000  0.4919010000000 1.0
C      1  0.5595190000000  0.4746540000000  0.5440950000000 1.0
C      1  0.5595200000000  0.5253450000000  0.4559060000000 1.0
C      1  0.4404800000000  0.4746550000000  0.5440940000000 1.0
C      1  0.4404810000000  0.5253460000000  0.4559050000000 1.0
C      1  0.4851230000000  0.5873100000000  0.5026540000000 1.0
C      1  0.4851220000000  0.4126900000000  0.4973460000000 1.0
C      1  0.5148780000000  0.5873100000000  0.5026540000000 1.0
C      1  0.5148770000000  0.4126900000000  0.4973460000000 1.0
C      1  0.4641720000000  0.4734500000000  0.5616280000000 1.0
C      1  0.4641720000000  0.5265500000000  0.4383710000000 1.0
C      1  0.5358280000000  0.4734500000000  0.5616290000000 1.0
C      1  0.5358280000000  0.5265500000000  0.4383720000000 1.0
C      1  0.4836920000000  0.4948090000000  0.5472680000000 1.0
C      1  0.4836930000000  0.5051910000000  0.4527320000000 1.0
C      1  0.5163070000000  0.4948090000000  0.5472680000000 1.0
C      1  0.5163080000000  0.5051910000000  0.4527320000000 1.0
C      1  0.5800040000000  0.4631500000000  0.5049940000000 1.0
C      1  0.5800040000000  0.5368490000000  0.4950060000000 1.0
C      1  0.4199960000000  0.4631510000000  0.5049940000000 1.0
C      1  0.4199960000000  0.5368500000000  0.4950060000000 1.0
C      1  0.4814440000000  0.5652430000000  0.5140900000000 1.0
C      1  0.4814430000000  0.4347570000000  0.4859100000000 1.0
C      1  0.5185570000000  0.5652430000000  0.5140900000000 1.0
C      1  0.5185560000000  0.4347570000000  0.4859100000000 1.0
C      1  0.5754140000000  0.4942710000000  0.5498610000000 1.0
C      1  0.5754140000000  0.5057280000000  0.4501400000000 1.0
C      1  0.4245860000000  0.4942720000000  0.5498600000000 1.0
C      1  0.4245860000000  0.5057290000000  0.4501390000000 1.0
C      1  0.5403020000000  0.5127830000000  0.5208070000000 1.0
C      1  0.5403020000000  0.4872160000000  0.4791930000000 1.0
C      1  0.4596980000000  0.5127840000000  0.5208070000000 1.0
C      1  0.4596980000000  0.4872170000000  0.4791930000000 1.0
C      1  0.5388350000000  0.4774550000000  0.4397470000000 1.0
C      1  0.5388350000000  0.5225440000000  0.5602540000000 1.0
C      1  0.4611650000000  0.4774560000000  0.4397460000000 1.0
C      1  0.4611650000000  0.5225450000000  0.5602530000000 1.0
C      1  0.5559050000000  0.5380510000000  0.5477880000000 1.0
C      1  0.5559050000000  0.4619480000000  0.4522120000000 1.0
C      1  0.4440950000000  0.5380520000000  0.5477880000000 1.0
C      1  0.4440950000000  0.4619490000000  0.4522120000000 1.0
C      1  0.5598550000000  0.4869240000000  0.4459530000000 1.0
C      1  0.5598550000000  0.5130750000000  0.5540470000000 1.0
C      1  0.4401450000000  0.4869250000000  0.4459530000000 1.0
C      1  0.4401450000000  0.5130760000000  0.5540470000000 1.0
C      1  0.5515740000000  0.5102580000000  0.5298430000000 1.0
C      1  0.5515740000000  0.4897410000000  0.4701580000000 1.0
C      1  0.4484260000000  0.5102590000000  0.5298420000000 1.0
C      1  0.4484260000000  0.4897420000000  0.4701570000000 1.0
C      1  0.5273070000000  0.4336610000000  0.4614800000000 1.0
C      1  0.5273080000000  0.5663380000000  0.5385200000000 1.0
C      1  0.4726920000000  0.4336620000000  0.4614800000000 1.0
C      1  0.4726930000000  0.5663390000000  0.5385200000000 1.0
C      1  0.5065590000000  0.5397610000000  0.5383530000000 1.0
C      1  0.5065580000000  0.4602390000000  0.4616470000000 1.0
C      1  0.4934420000000  0.5397610000000  0.5383530000000 1.0
C      1  0.4934410000000  0.4602390000000  0.4616470000000 1.0
C      1  0.4605350000000  0.4172050000000  0.5026210000000 1.0
C      1  0.4605360000000  0.5827950000000  0.4973790000000 1.0
C      1  0.5394640000000  0.4172050000000  0.5026210000000 1.0
C      1  0.5394650000000  0.5827950000000  0.4973790000000 1.0
C      1  0.5286520000000  0.4919770000000  0.4724080000000 1.0
C      1  0.5286520000000  0.5080230000000  0.5275920000000 1.0
C      1  0.4713480000000  0.4919770000000  0.4724080000000 1.0
C      1  0.4713480000000  0.5080230000000  0.5275920000000 1.0
C      1  0.4661710000000  0.5549620000000  0.5319420000000 1.0
C      1  0.4661710000000  0.4450380000000  0.4680580000000 1.0
C      1  0.5338290000000  0.5549620000000  0.5319420000000 1.0
C      1  0.5338290000000  0.4450380000000  0.4680580000000 1.0
C      1  0.5135200000000  0.4949020000000  0.4297210000000 1.0
C      1  0.5135200000000  0.5050980000000  0.5702790000000 1.0
C      1  0.4864800000000  0.4949020000000  0.4297210000000 1.0
C      1  0.4864800000000  0.5050980000000  0.5702790000000 1.0
C      1  0.4700140000000  0.5118590000000  0.4336360000000 1.0
C      1  0.4700140000000  0.4881420000000  0.5663640000000 1.0
C      1  0.5299860000000  0.5118580000000  0.4336360000000 1.0
C      1  0.5299860000000  0.4881410000000  0.5663640000000 1.0
C      1  0.4812170000000  0.4646710000000  0.4942770000000 1.0
C      1  0.4812180000000  0.5353300000000  0.5057230000000 1.0
C      1  0.5187820000000  0.4646700000000  0.4942770000000 1.0
C      1  0.5187830000000  0.5353290000000  0.5057230000000 1.0
C      1  0.5713190000000  0.4519790000000  0.4854100000000 1.0
C      1  0.5713200000000  0.5480200000000  0.5145900000000 1.0
C      1  0.4286800000000  0.4519800000000  0.4854100000000 1.0
C      1  0.4286810000000  0.5480210000000  0.5145900000000 1.0
C      1  0.5590880000000  0.4766710000000  0.5088760000000 1.0
C      1  0.5590880000000  0.5233290000000  0.4911250000000 1.0
C      1  0.4409120000000  0.4766710000000  0.5088750000000 1.0
C      1  0.4409120000000  0.5233290000000  0.4911240000000 1.0
C      1  0.5527120000000  0.4305170000000  0.5190890000000 1.0
C      1  0.5527130000000  0.5694820000000  0.4809110000000 1.0
C      1  0.4472870000000  0.4305180000000  0.5190890000000 1.0
C      1  0.4472880000000  0.5694830000000  0.4809110000000 1.0
C      1  0.4850610000000  0.4426730000000  0.5587060000000 1.0
C      1  0.4850620000000  0.5573270000000  0.4412940000000 1.0
C      1  0.5149380000000  0.4426730000000  0.5587060000000 1.0
C      1  0.5149390000000  0.5573270000000  0.4412940000000 1.0
C      1  0.5311820000000  0.5149730000000  0.4962920000000 1.0
C      1  0.5311820000000  0.4850260000000  0.5037080000000 1.0
C      1  0.4688180000000  0.5149740000000  0.4962920000000 1.0
C      1  0.4688180000000  0.4850270000000  0.5037080000000 1.0
C      1  0.5363140000000  0.4856870000000  0.5169570000000 1.0
C      1  0.5363140000000  0.5143130000000  0.4830430000000 1.0
C      1  0.4636860000000  0.4856870000000  0.5169570000000 1.0
C      1  0.4636860000000  0.5143130000000  0.4830430000000 1.0
C      1  0.5481310000000  0.5651320000000  0.4571620000000 1.0
C      1  0.5481300000000  0.4348670000000  0.5428380000000 1.0
C      1  0.4518700000000  0.5651330000000  0.4571620000000 1.0
C      1  0.4518690000000  0.4348680000000  0.5428380000000 1.0
C      1  0.5330400000000  0.4533680000000  0.5110050000000 1.0
C      1  0.5330400000000  0.5466310000000  0.4889950000000 1.0
C      1  0.4669600000000  0.4533690000000  0.5110050000000 1.0
C      1  0.4669600000000  0.5466320000000  0.4889950000000 1.0
C      1  0.4638380000000  0.4728780000000  0.5464030000000 1.0
C      1  0.4638380000000  0.5271230000000  0.4535960000000 1.0
C      1  0.5361620000000  0.4728770000000  0.5464040000000 1.0
C      1  0.5361620000000  0.5271220000000  0.4535970000000 1.0
C      1  0.5078710000000  0.5455490000000  0.4852090000000 1.0
C      1  0.5078710000000  0.4544510000000  0.5147910000000 1.0
C      1  0.4921290000000  0.5455490000000  0.4852090000000 1.0
C      1  0.4921290000000  0.4544510000000  0.5147910000000 1.0
C      1  0.5071420000000  0.5038730000000  0.4210840000000 1.0
C      1  0.5071420000000  0.4961270000000  0.5789160000000 1.0
C      1  0.4928580000000  0.5038730000000  0.4210840000000 1.0
C      1  0.4928580000000  0.4961270000000  0.5789160000000 1.0
C      1  0.5284840000000  0.5859830000000  0.5035530000000 1.0
C      1  0.5284830000000  0.4140170000000  0.4964470000000 1.0
C      1  0.4715170000000  0.5859830000000  0.5035530000000 1.0
C      1  0.4715160000000  0.4140170000000  0.4964470000000 1.0
C      1  0.4929880000000  0.4186630000000  0.5075280000000 1.0
C      1  0.4929890000000  0.5813370000000  0.4924720000000 1.0
C      1  0.5070110000000  0.4186630000000  0.5075280000000 1.0
C      1  0.5070120000000  0.5813370000000  0.4924720000000 1.0
C      1  0.5304300000000  0.5037670000000  0.4479770000000 1.0
C      1  0.5304290000000  0.4962320000000  0.5520230000000 1.0
C      1  0.4695710000000  0.5037680000000  0.4479770000000 1.0
C      1  0.4695700000000  0.4962330000000  0.5520230000000 1.0
C      1  0.5128770000000  0.4340810000000  0.4619790000000 1.0
C      1  0.5128780000000  0.5659190000000  0.5380210000000 1.0
C      1  0.4871220000000  0.4340810000000  0.4619790000000 1.0
C      1  0.4871230000000  0.5659190000000  0.5380210000000 1.0
C      1  0.5352410000000  0.4546550000000  0.5245030000000 1.0
C      1  0.5352420000000  0.5453450000000  0.4754980000000 1.0
C      1  0.4647580000000  0.4546550000000  0.5245020000000 1.0
C      1  0.4647590000000  0.5453450000000  0.4754970000000 1.0
C      1  0.4516730000000  0.5348060000000  0.4574730000000 1.0
C      1  0.4516720000000  0.4651950000000  0.5425260000000 1.0
C      1  0.5483280000000  0.5348050000000  0.4574740000000 1.0
C      1  0.5483270000000  0.4651940000000  0.5425270000000 1.0
C      1  0.5582190000000  0.5468110000000  0.5361930000000 1.0
C      1  0.5582190000000  0.4531880000000  0.4638080000000 1.0
C      1  0.4417810000000  0.5468120000000  0.5361920000000 1.0
C      1  0.4417810000000  0.4531890000000  0.4638070000000 1.0
C      1  0.5687360000000  0.4577020000000  0.4722460000000 1.0
C      1  0.5687360000000  0.5422970000000  0.5277550000000 1.0
C      1  0.4312640000000  0.4577030000000  0.4722450000000 1.0
C      1  0.4312640000000  0.5422980000000  0.5277540000000 1.0
END
