TITL C-616442-5639-57 -7.55413231086071 1000000 -1614.9294435522 0 0 240 (C1) n - 1
REM
REM in /scratch/bkarasulu/Only-C240/Try3-MINAMP_3A
REM
REM
REM
REM
REM
REM ./C.cell (861c01eed278495e92615705e35c7759)
REM
REM compiler GCC version 9.2.1 20190827 (Red Hat 9.2.1-1)
REM options -cpp -mtune=generic -march=x86-64 -g -O0 -fpre-include=/usr/include/finclude/math-vector-fortran.h
REM seed 61616420 260275474 -764514771 2147089590 -1377110335 1924390392 -436842996 -1791655998 -1381871132 1707479793 -2133244840 -183059598 -659487269 43870386 997186050 1864543084 471078481 -241537413 -233477562 -1631048466 -1457958339 -1682156796 1942580876 808817962 1087299706 -255440393 2071855895 -1216814785 587147674 1255091548 -15316782 1231549911 -1365442060
REM
CELL 1.54180  100.00000  100.00000  100.00000   90.00000   90.00000   90.00000
LATT -1
SFAC C  
C      1  0.5424910000000  0.5104690000000  0.4910970000000 1.0
C      1  0.4940300000000  0.4535870000000  0.4933570000000 1.0
C      1  0.4600900000000  0.5356520000000  0.4963470000000 1.0
C      1  0.5485910000000  0.4807120000000  0.5014110000000 1.0
C      1  0.4853870000000  0.5499410000000  0.5081230000000 1.0
C      1  0.4776810000000  0.4797040000000  0.5014310000000 1.0
C      1  0.5215160000000  0.4912190000000  0.4164540000000 1.0
C      1  0.4899500000000  0.4928980000000  0.4277670000000 1.0
C      1  0.5035390000000  0.5248170000000  0.4252750000000 1.0
C      1  0.5128550000000  0.5159550000000  0.5707760000000 1.0
C      1  0.4758970000000  0.5137590000000  0.5776280000000 1.0
C      1  0.4965080000000  0.4865380000000  0.5718220000000 1.0
C      1  0.5596000000000  0.4503340000000  0.5252060000000 1.0
C      1  0.4365240000000  0.4745200000000  0.5282680000000 1.0
C      1  0.5113550000000  0.5673400000000  0.5283540000000 1.0
C      1  0.5511050000000  0.5458630000000  0.4707170000000 1.0
C      1  0.4274230000000  0.5255760000000  0.4775190000000 1.0
C      1  0.5123740000000  0.4228900000000  0.4759940000000 1.0
C      1  0.5490210000000  0.5485180000000  0.5300760000000 1.0
C      1  0.5193650000000  0.4299910000000  0.5348060000000 1.0
C      1  0.4277390000000  0.5152220000000  0.5361680000000 1.0
C      1  0.5523520000000  0.4381230000000  0.4676280000000 1.0
C      1  0.5171290000000  0.5689500000000  0.4698370000000 1.0
C      1  0.4310230000000  0.4816570000000  0.4693280000000 1.0
C      1  0.4826010000000  0.4721830000000  0.4387750000000 1.0
C      1  0.4887900000000  0.5413570000000  0.4392090000000 1.0
C      1  0.5351590000000  0.4953140000000  0.4374300000000 1.0
C      1  0.4673080000000  0.5288810000000  0.5614320000000 1.0
C      1  0.4832180000000  0.4690970000000  0.5610600000000 1.0
C      1  0.5368610000000  0.5128380000000  0.5596620000000 1.0
C      1  0.4600310000000  0.4828430000000  0.5743800000000 1.0
C      1  0.4963750000000  0.5409290000000  0.5609510000000 1.0
C      1  0.5278090000000  0.4827920000000  0.5603940000000 1.0
C      1  0.4689580000000  0.5163680000000  0.4391350000000 1.0
C      1  0.5094010000000  0.4612800000000  0.4295110000000 1.0
C      1  0.5314910000000  0.5187910000000  0.4382850000000 1.0
C      1  0.5289890000000  0.4349630000000  0.4889570000000 1.0
C      1  0.4336750000000  0.5072350000000  0.4917170000000 1.0
C      1  0.5342900000000  0.5506560000000  0.4874330000000 1.0
C      1  0.5251580000000  0.5556000000000  0.5124090000000 1.0
C      1  0.4368410000000  0.4943230000000  0.5152390000000 1.0
C      1  0.5407570000000  0.4429700000000  0.5122630000000 1.0
C      1  0.4844700000000  0.5198390000000  0.5334530000000 1.0
C      1  0.5154140000000  0.5112460000000  0.5472360000000 1.0
C      1  0.4799290000000  0.4921860000000  0.5543500000000 1.0
C      1  0.5031970000000  0.4837320000000  0.4463070000000 1.0
C      1  0.5301100000000  0.5065740000000  0.4467510000000 1.0
C      1  0.5005950000000  0.5225410000000  0.4496110000000 1.0
C      1  0.4916030000000  0.5304650000000  0.5688290000000 1.0
C      1  0.5203630000000  0.4935680000000  0.5641590000000 1.0
C      1  0.4722030000000  0.4881900000000  0.5766990000000 1.0
C      1  0.5048610000000  0.4730410000000  0.4247170000000 1.0
C      1  0.5263030000000  0.5139060000000  0.4252930000000 1.0
C      1  0.4818400000000  0.5167860000000  0.4344840000000 1.0
C      1  0.4194950000000  0.5299330000000  0.4993330000000 1.0
C      1  0.5620990000000  0.5498330000000  0.4915740000000 1.0
C      1  0.5109620000000  0.4155740000000  0.4985940000000 1.0
C      1  0.4286690000000  0.4685330000000  0.5064540000000 1.0
C      1  0.5676870000000  0.4426820000000  0.5041180000000 1.0
C      1  0.5122780000000  0.5809240000000  0.5083810000000 1.0
C      1  0.4721870000000  0.5318550000000  0.4989450000000 1.0
C      1  0.5348600000000  0.4998420000000  0.4936070000000 1.0
C      1  0.4958610000000  0.4659840000000  0.4955650000000 1.0
C      1  0.4901360000000  0.4777080000000  0.4985580000000 1.0
C      1  0.5385390000000  0.4876490000000  0.4975680000000 1.0
C      1  0.4832640000000  0.5383910000000  0.5032060000000 1.0
C      1  0.5663580000000  0.4537770000000  0.4801990000000 1.0
C      1  0.4394450000000  0.4637060000000  0.4830500000000 1.0
C      1  0.4991610000000  0.5731730000000  0.4862240000000 1.0
C      1  0.5612440000000  0.5346890000000  0.5138530000000 1.0
C      1  0.4328900000000  0.5352200000000  0.5224770000000 1.0
C      1  0.5006920000000  0.4274570000000  0.5195610000000 1.0
C      1  0.5020990000000  0.4569980000000  0.5316030000000 1.0
C      1  0.4607500000000  0.5258150000000  0.5381410000000 1.0
C      1  0.5408500000000  0.5175990000000  0.5284930000000 1.0
C      1  0.4935550000000  0.5472120000000  0.4696800000000 1.0
C      1  0.4636600000000  0.4808350000000  0.4691300000000 1.0
C      1  0.5420760000000  0.4708170000000  0.4640400000000 1.0
C      1  0.4189550000000  0.4808310000000  0.4765360000000 1.0
C      1  0.5247800000000  0.5785320000000  0.4769060000000 1.0
C      1  0.5584800000000  0.4278210000000  0.4751160000000 1.0
C      1  0.4155580000000  0.5147360000000  0.5290700000000 1.0
C      1  0.5250380000000  0.4183970000000  0.5292130000000 1.0
C      1  0.5549640000000  0.5594650000000  0.5233720000000 1.0
C      1  0.5209210000000  0.4470490000000  0.4720170000000 1.0
C      1  0.4483710000000  0.5096750000000  0.4742730000000 1.0
C      1  0.5263610000000  0.5363120000000  0.4720140000000 1.0
C      1  0.5148400000000  0.5409360000000  0.5269560000000 1.0
C      1  0.4536150000000  0.4945070000000  0.5307540000000 1.0
C      1  0.5349600000000  0.4598100000000  0.5273290000000 1.0
C      1  0.5066000000000  0.5633290000000  0.4782350000000 1.0
C      1  0.5535770000000  0.4513120000000  0.4738380000000 1.0
C      1  0.4425610000000  0.4773880000000  0.4780460000000 1.0
C      1  0.5103260000000  0.4366190000000  0.5254740000000 1.0
C      1  0.5487140000000  0.5368610000000  0.5212780000000 1.0
C      1  0.4379950000000  0.5233230000000  0.5293160000000 1.0
C      1  0.5423090000000  0.4608880000000  0.4728220000000 1.0
C      1  0.4547630000000  0.4851870000000  0.4780730000000 1.0
C      1  0.5043650000000  0.5488510000000  0.4770700000000 1.0
C      1  0.5369610000000  0.5282970000000  0.5218050000000 1.0
C      1  0.4519320000000  0.5193460000000  0.5292270000000 1.0
C      1  0.5111900000000  0.4511160000000  0.5238200000000 1.0
C      1  0.5420180000000  0.5479150000000  0.5422800000000 1.0
C      1  0.5219300000000  0.4363160000000  0.5469010000000 1.0
C      1  0.4305320000000  0.5072520000000  0.5471770000000 1.0
C      1  0.5442600000000  0.4371590000000  0.4563120000000 1.0
C      1  0.5194460000000  0.5628110000000  0.4573900000000 1.0
C      1  0.4341260000000  0.4859690000000  0.4564980000000 1.0
C      1  0.5544670000000  0.4986450000000  0.5297010000000 1.0
C      1  0.4805510000000  0.4647420000000  0.5301010000000 1.0
C      1  0.4778480000000  0.5425580000000  0.5350400000000 1.0
C      1  0.5468190000000  0.4934620000000  0.4629500000000 1.0
C      1  0.4706540000000  0.5528220000000  0.4694690000000 1.0
C      1  0.4787590000000  0.4631010000000  0.4672290000000 1.0
C      1  0.5216720000000  0.5086280000000  0.5607090000000 1.0
C      1  0.4832070000000  0.4837050000000  0.5663570000000 1.0
C      1  0.4775960000000  0.5257770000000  0.5702450000000 1.0
C      1  0.5291920000000  0.4999340000000  0.4243060000000 1.0
C      1  0.4936180000000  0.5268350000000  0.4368250000000 1.0
C      1  0.4948750000000  0.4805260000000  0.4342290000000 1.0
C      1  0.5140220000000  0.5196280000000  0.4211830000000 1.0
C      1  0.5133440000000  0.4819120000000  0.4182030000000 1.0
C      1  0.4858730000000  0.5041630000000  0.4301820000000 1.0
C      1  0.5078440000000  0.4897350000000  0.5685980000000 1.0
C      1  0.5020290000000  0.5214670000000  0.5726390000000 1.0
C      1  0.4742200000000  0.5017280000000  0.5799710000000 1.0
C      1  0.5650170000000  0.5029850000000  0.4895170000000 1.0
C      1  0.4705640000000  0.4500390000000  0.4936870000000 1.0
C      1  0.4567020000000  0.5580690000000  0.5028610000000 1.0
C      1  0.5674060000000  0.4945930000000  0.4985560000000 1.0
C      1  0.4648760000000  0.5613110000000  0.5118400000000 1.0
C      1  0.4661100000000  0.4591240000000  0.5010280000000 1.0
C      1  0.4728040000000  0.4687850000000  0.5216040000000 1.0
C      1  0.4805470000000  0.5540200000000  0.5309450000000 1.0
C      1  0.5580520000000  0.4906750000000  0.5211230000000 1.0
C      1  0.4631330000000  0.5527590000000  0.4791800000000 1.0
C      1  0.4825300000000  0.4524970000000  0.4725900000000 1.0
C      1  0.5502320000000  0.5033350000000  0.4694780000000 1.0
C      1  0.5226330000000  0.5543820000000  0.4487310000000 1.0
C      1  0.5364180000000  0.4414970000000  0.4474740000000 1.0
C      1  0.4405560000000  0.4927990000000  0.4480780000000 1.0
C      1  0.5236810000000  0.4457880000000  0.5547620000000 1.0
C      1  0.5323800000000  0.5468170000000  0.5502990000000 1.0
C      1  0.4331530000000  0.4985450000000  0.5557930000000 1.0
C      1  0.5264570000000  0.4575110000000  0.5596440000000 1.0
C      1  0.4385130000000  0.4895610000000  0.5635730000000 1.0
C      1  0.5202970000000  0.5474650000000  0.5554320000000 1.0
C      1  0.5287710000000  0.5440040000000  0.4430840000000 1.0
C      1  0.4485120000000  0.5014030000000  0.4424130000000 1.0
C      1  0.5275120000000  0.4465430000000  0.4394800000000 1.0
C      1  0.4591830000000  0.5290200000000  0.5518050000000 1.0
C      1  0.5445970000000  0.5105810000000  0.5504330000000 1.0
C      1  0.4891430000000  0.4621940000000  0.5526450000000 1.0
C      1  0.4730120000000  0.4731580000000  0.4465930000000 1.0
C      1  0.5395800000000  0.4832940000000  0.4419540000000 1.0
C      1  0.4845450000000  0.5482980000000  0.4482840000000 1.0
C      1  0.4827660000000  0.4493870000000  0.4863260000000 1.0
C      1  0.4576110000000  0.5488400000000  0.4917610000000 1.0
C      1  0.5534990000000  0.5073910000000  0.4825030000000 1.0
C      1  0.4776320000000  0.5576260000000  0.5171340000000 1.0
C      1  0.4687370000000  0.4710010000000  0.5080710000000 1.0
C      1  0.5597870000000  0.4867430000000  0.5075540000000 1.0
C      1  0.5085080000000  0.5149740000000  0.4550700000000 1.0
C      1  0.5174610000000  0.5041030000000  0.4538630000000 1.0
C      1  0.5105080000000  0.4921910000000  0.4514180000000 1.0
C      1  0.4848960000000  0.4990880000000  0.5454830000000 1.0
C      1  0.5052700000000  0.5100570000000  0.5406630000000 1.0
C      1  0.4913670000000  0.5090910000000  0.5379020000000 1.0
C      1  0.5156600000000  0.5393450000000  0.4805040000000 1.0
C      1  0.5297610000000  0.4554820000000  0.4788580000000 1.0
C      1  0.4534630000000  0.4994020000000  0.4828850000000 1.0
C      1  0.5238300000000  0.4569220000000  0.5186880000000 1.0
C      1  0.5233660000000  0.5336790000000  0.5182960000000 1.0
C      1  0.4549270000000  0.5062970000000  0.5226740000000 1.0
C      1  0.5713630000000  0.5263880000000  0.5177880000000 1.0
C      1  0.4872120000000  0.4285920000000  0.5213870000000 1.0
C      1  0.4380670000000  0.5473910000000  0.5263980000000 1.0
C      1  0.5734550000000  0.4647410000000  0.4759630000000 1.0
C      1  0.4864530000000  0.5775330000000  0.4836880000000 1.0
C      1  0.4421060000000  0.4539000000000  0.4738280000000 1.0
C      1  0.5630180000000  0.4313370000000  0.4870010000000 1.0
C      1  0.4197070000000  0.4761890000000  0.4890290000000 1.0
C      1  0.5214870000000  0.5818030000000  0.4893270000000 1.0
C      1  0.5592330000000  0.5581410000000  0.5108780000000 1.0
C      1  0.4144370000000  0.5208460000000  0.5175540000000 1.0
C      1  0.5209990000000  0.4150530000000  0.5170750000000 1.0
C      1  0.5613450000000  0.5460770000000  0.4786750000000 1.0
C      1  0.5069150000000  0.4163430000000  0.4856880000000 1.0
C      1  0.4216550000000  0.5331430000000  0.4863750000000 1.0
C      1  0.5688820000000  0.4482490000000  0.5164170000000 1.0
C      1  0.5085030000000  0.5775180000000  0.5208910000000 1.0
C      1  0.4328580000000  0.4661990000000  0.5192380000000 1.0
C      1  0.4746820000000  0.5814920000000  0.4815120000000 1.0
C      1  0.5766890000000  0.4757970000000  0.4707710000000 1.0
C      1  0.4458950000000  0.4490410000000  0.4629270000000 1.0
C      1  0.4752160000000  0.4316270000000  0.5235960000000 1.0
C      1  0.5806200000000  0.5183790000000  0.5206010000000 1.0
C      1  0.4434750000000  0.5566270000000  0.5329430000000 1.0
C      1  0.5233860000000  0.5425880000000  0.5065060000000 1.0
C      1  0.5302360000000  0.4507410000000  0.5064160000000 1.0
C      1  0.4476600000000  0.5020510000000  0.5101010000000 1.0
C      1  0.5296840000000  0.4488950000000  0.4922540000000 1.0
C      1  0.5233040000000  0.5431120000000  0.4925920000000 1.0
C      1  0.4466910000000  0.5023590000000  0.4959650000000 1.0
C      1  0.4213190000000  0.4808020000000  0.5026220000000 1.0
C      1  0.5257440000000  0.5785230000000  0.5029360000000 1.0
C      1  0.5583400000000  0.4316420000000  0.5007640000000 1.0
C      1  0.4148610000000  0.5164790000000  0.5036580000000 1.0
C      1  0.5250210000000  0.4163460000000  0.5031890000000 1.0
C      1  0.5543200000000  0.5609000000000  0.4974530000000 1.0
C      1  0.4419340000000  0.4872450000000  0.5267470000000 1.0
C      1  0.5170080000000  0.5552470000000  0.5245380000000 1.0
C      1  0.5459280000000  0.4507510000000  0.5234890000000 1.0
C      1  0.4356470000000  0.5146640000000  0.4794310000000 1.0
C      1  0.5205370000000  0.4338840000000  0.4773190000000 1.0
C      1  0.5379540000000  0.5443200000000  0.4748770000000 1.0
C      1  0.4290390000000  0.4646090000000  0.4926140000000 1.0
C      1  0.5076060000000  0.5814630000000  0.4944770000000 1.0
C      1  0.5702930000000  0.4440340000000  0.4897120000000 1.0
C      1  0.4217320000000  0.5331580000000  0.5136010000000 1.0
C      1  0.5069260000000  0.4169890000000  0.5124990000000 1.0
C      1  0.5647090000000  0.5456360000000  0.5052510000000 1.0
C      1  0.4481730000000  0.4839740000000  0.5699400000000 1.0
C      1  0.5077750000000  0.5454970000000  0.5573580000000 1.0
C      1  0.5281440000000  0.4701040000000  0.5602420000000 1.0
C      1  0.4583240000000  0.5095320000000  0.4406430000000 1.0
C      1  0.5178760000000  0.4532010000000  0.4341930000000 1.0
C      1  0.5322650000000  0.5320570000000  0.4410400000000 1.0
C      1  0.4827800000000  0.5507040000000  0.4622260000000 1.0
C      1  0.5431960000000  0.4816860000000  0.4559140000000 1.0
C      1  0.4710170000000  0.4731790000000  0.4610640000000 1.0
C      1  0.4911240000000  0.4601160000000  0.5385370000000 1.0
C      1  0.5479210000000  0.5092630000000  0.5364820000000 1.0
C      1  0.4748880000000  0.5290810000000  0.5347210000000 1.0
C      1  0.4221520000000  0.5053210000000  0.4997080000000 1.0
C      1  0.5406770000000  0.5608090000000  0.4949160000000 1.0
C      1  0.5341860000000  0.4251260000000  0.4976590000000 1.0
C      1  0.4243650000000  0.4930830000000  0.5081370000000 1.0
C      1  0.5454020000000  0.4312500000000  0.5056660000000 1.0
C      1  0.5316110000000  0.5661840000000  0.5055290000000 1.0
END
