TITL C-616442-5639-35 77.3538387618855 1000000 -1602.88681663529 0 0 240 (C2) n - 1
REM
REM in /scratch/bkarasulu/Only-C240/Try3-MINAMP_3A
REM
REM
REM
REM
REM
REM ./C.cell (861c01eed278495e92615705e35c7759)
REM
REM compiler GCC version 9.2.1 20190827 (Red Hat 9.2.1-1)
REM options -cpp -mtune=generic -march=x86-64 -g -O0 -fpre-include=/usr/include/finclude/math-vector-fortran.h
REM seed -644419714 -1678441408 1348004191 1854224200 362218694 -1346291618 -1623513092 -444132361 355095860 -1492327979 -1388835193 1141066567 -383263425 -1609581217 1463718298 -1807709085 -1237399875 -1744362762 -96558806 204566185 -1119700093 813673321 1297461459 1236522935 1166037815 895054954 -288248770 -1978946314 -1536621189 -1907242412 -822727015 1784208423 -748505808
REM
CELL 1.54180  100.00000  100.00000  100.00000   90.00000   90.00000   90.00000
LATT -1
SFAC C  
C      1  0.4614900000000  0.4929710000000  0.4809640000000 1.0
C      1  0.4614930000000  0.5071050000000  0.5190150000000 1.0
C      1  0.5298050000000  0.4643870000000  0.4424360000000 1.0
C      1  0.5298450000000  0.5355540000000  0.5575800000000 1.0
C      1  0.5130690000000  0.5881540000000  0.5024950000000 1.0
C      1  0.5128960000000  0.4118200000000  0.4975120000000 1.0
C      1  0.4552210000000  0.4783220000000  0.5299120000000 1.0
C      1  0.4552800000000  0.5217660000000  0.4700640000000 1.0
C      1  0.5016940000000  0.4332180000000  0.5170930000000 1.0
C      1  0.5018340000000  0.5667790000000  0.4829080000000 1.0
C      1  0.5369760000000  0.5238180000000  0.4788980000000 1.0
C      1  0.5369170000000  0.4761090000000  0.5211220000000 1.0
C      1  0.4668590000000  0.5349750000000  0.5658250000000 1.0
C      1  0.4668250000000  0.4650900000000  0.4341570000000 1.0
C      1  0.5515400000000  0.4765010000000  0.5487260000000 1.0
C      1  0.5516120000000  0.5233970000000  0.4513020000000 1.0
C      1  0.4807450000000  0.4651680000000  0.5403650000000 1.0
C      1  0.4808350000000  0.5348700000000  0.4596250000000 1.0
C      1  0.5395860000000  0.5639650000000  0.5243540000000 1.0
C      1  0.5394730000000  0.4359570000000  0.4756670000000 1.0
C      1  0.5594240000000  0.5049520000000  0.5121320000000 1.0
C      1  0.5594210000000  0.4949310000000  0.4879000000000 1.0
C      1  0.5586350000000  0.5441580000000  0.4733640000000 1.0
C      1  0.5585330000000  0.4557260000000  0.5266680000000 1.0
C      1  0.4938600000000  0.4598460000000  0.4645050000000 1.0
C      1  0.4939200000000  0.5401660000000  0.5354920000000 1.0
C      1  0.4802040000000  0.5114930000000  0.5600320000000 1.0
C      1  0.4802130000000  0.4885460000000  0.4399570000000 1.0
C      1  0.5002030000000  0.5087670000000  0.4485040000000 1.0
C      1  0.5001580000000  0.4912320000000  0.5514960000000 1.0
C      1  0.4696140000000  0.5225760000000  0.5586420000000 1.0
C      1  0.4696010000000  0.4774840000000  0.4413420000000 1.0
C      1  0.4941940000000  0.4291470000000  0.4549120000000 1.0
C      1  0.4943100000000  0.5708640000000  0.5450850000000 1.0
C      1  0.4761340000000  0.4525520000000  0.4910350000000 1.0
C      1  0.4762230000000  0.5474950000000  0.5089530000000 1.0
C      1  0.4873080000000  0.5337640000000  0.4364360000000 1.0
C      1  0.4872080000000  0.4662610000000  0.5635570000000 1.0
C      1  0.4355870000000  0.5464660000000  0.4885450000000 1.0
C      1  0.4354900000000  0.4536620000000  0.5114210000000 1.0
C      1  0.4880180000000  0.5554760000000  0.4507760000000 1.0
C      1  0.4878820000000  0.4445480000000  0.5492170000000 1.0
C      1  0.4682830000000  0.4850140000000  0.5316960000000 1.0
C      1  0.4683290000000  0.5150490000000  0.4682880000000 1.0
C      1  0.4404910000000  0.5334450000000  0.4858390000000 1.0
C      1  0.4404180000000  0.4666730000000  0.5141290000000 1.0
C      1  0.5519920000000  0.4334470000000  0.4993570000000 1.0
C      1  0.5521230000000  0.5664500000000  0.5006700000000 1.0
C      1  0.4935380000000  0.4365510000000  0.4864830000000 1.0
C      1  0.4936560000000  0.5634610000000  0.5135140000000 1.0
C      1  0.5239780000000  0.4449060000000  0.4569600000000 1.0
C      1  0.5240640000000  0.5550470000000  0.5430530000000 1.0
C      1  0.5260550000000  0.5264500000000  0.5173750000000 1.0
C      1  0.5260120000000  0.4734980000000  0.4826390000000 1.0
C      1  0.5356390000000  0.5435490000000  0.4478080000000 1.0
C      1  0.5355250000000  0.4563810000000  0.5522110000000 1.0
C      1  0.4698330000000  0.4332780000000  0.5264270000000 1.0
C      1  0.4699790000000  0.5667820000000  0.4735570000000 1.0
C      1  0.5358400000000  0.4963160000000  0.4795340000000 1.0
C      1  0.5358370000000  0.5036130000000  0.5204860000000 1.0
C      1  0.4796240000000  0.4548830000000  0.5309030000000 1.0
C      1  0.4797300000000  0.5451570000000  0.4690860000000 1.0
C      1  0.5637240000000  0.5116230000000  0.5414130000000 1.0
C      1  0.5637230000000  0.4882510000000  0.4586210000000 1.0
C      1  0.4850190000000  0.4583510000000  0.5524300000000 1.0
C      1  0.4851290000000  0.5416790000000  0.4475620000000 1.0
C      1  0.5326750000000  0.4831480000000  0.4752360000000 1.0
C      1  0.5326950000000  0.5167870000000  0.5247810000000 1.0
C      1  0.5137600000000  0.5370170000000  0.5741830000000 1.0
C      1  0.5137270000000  0.4629560000000  0.4258240000000 1.0
C      1  0.4917680000000  0.4901640000000  0.4323240000000 1.0
C      1  0.4917510000000  0.5098520000000  0.5676720000000 1.0
C      1  0.5142810000000  0.4510100000000  0.4895910000000 1.0
C      1  0.5143720000000  0.5489620000000  0.5104160000000 1.0
C      1  0.4368130000000  0.4949220000000  0.5387490000000 1.0
C      1  0.4368440000000  0.5052020000000  0.4612170000000 1.0
C      1  0.5208200000000  0.4114450000000  0.5078010000000 1.0
C      1  0.5209990000000  0.5885140000000  0.4922100000000 1.0
C      1  0.4625130000000  0.4275340000000  0.5162090000000 1.0
C      1  0.4626640000000  0.5725390000000  0.4837710000000 1.0
C      1  0.5107200000000  0.4838940000000  0.5454340000000 1.0
C      1  0.5107760000000  0.5160850000000  0.4545720000000 1.0
C      1  0.5615970000000  0.4738750000000  0.5414050000000 1.0
C      1  0.5616710000000  0.5260040000000  0.4586280000000 1.0
C      1  0.4713530000000  0.5465780000000  0.5640380000000 1.0
C      1  0.4712960000000  0.4534790000000  0.4359460000000 1.0
C      1  0.4820310000000  0.5375720000000  0.5149590000000 1.0
C      1  0.4819650000000  0.4624630000000  0.4850310000000 1.0
C      1  0.4950810000000  0.5190990000000  0.5778370000000 1.0
C      1  0.4950850000000  0.4809100000000  0.4221610000000 1.0
C      1  0.4817430000000  0.5717640000000  0.4667750000000 1.0
C      1  0.4815840000000  0.4282720000000  0.5332150000000 1.0
C      1  0.4639850000000  0.5711020000000  0.5219720000000 1.0
C      1  0.4638560000000  0.4289690000000  0.4780090000000 1.0
C      1  0.5408500000000  0.5331610000000  0.4559210000000 1.0
C      1  0.5407610000000  0.4667580000000  0.5441010000000 1.0
C      1  0.5189420000000  0.5167570000000  0.5724300000000 1.0
C      1  0.5189480000000  0.4832050000000  0.4275800000000 1.0
C      1  0.4510290000000  0.5340340000000  0.4754890000000 1.0
C      1  0.4509490000000  0.4660630000000  0.5244840000000 1.0
C      1  0.5655010000000  0.5159050000000  0.5177390000000 1.0
C      1  0.5654790000000  0.4839650000000  0.4822960000000 1.0
C      1  0.5059940000000  0.5845970000000  0.5124010000000 1.0
C      1  0.5058340000000  0.4153910000000  0.4876030000000 1.0
C      1  0.5070880000000  0.4752500000000  0.4214630000000 1.0
C      1  0.5070950000000  0.5247360000000  0.5785410000000 1.0
C      1  0.4561970000000  0.5470060000000  0.4767650000000 1.0
C      1  0.4560920000000  0.4530810000000  0.5232110000000 1.0
C      1  0.4863790000000  0.5137900000000  0.4494880000000 1.0
C      1  0.4863240000000  0.4862370000000  0.5505040000000 1.0
C      1  0.5154250000000  0.5062310000000  0.5646290000000 1.0
C      1  0.5154470000000  0.4937380000000  0.4353790000000 1.0
C      1  0.5303850000000  0.5608540000000  0.5331160000000 1.0
C      1  0.5302820000000  0.4390860000000  0.4669000000000 1.0
C      1  0.4548380000000  0.4796010000000  0.4814710000000 1.0
C      1  0.4548680000000  0.5204880000000  0.5185050000000 1.0
C      1  0.4353390000000  0.5073690000000  0.5443370000000 1.0
C      1  0.4353490000000  0.4927590000000  0.4556280000000 1.0
C      1  0.5250460000000  0.4703970000000  0.4306110000000 1.0
C      1  0.5250680000000  0.5295530000000  0.5694030000000 1.0
C      1  0.5322280000000  0.4441060000000  0.5043270000000 1.0
C      1  0.5323410000000  0.5558310000000  0.4956910000000 1.0
C      1  0.5600340000000  0.4769630000000  0.5080460000000 1.0
C      1  0.5600830000000  0.5229180000000  0.4919860000000 1.0
C      1  0.4666150000000  0.5004220000000  0.4701180000000 1.0
C      1  0.4665990000000  0.4996440000000  0.5298640000000 1.0
C      1  0.5658310000000  0.5215990000000  0.5318230000000 1.0
C      1  0.5658050000000  0.4782710000000  0.4682120000000 1.0
C      1  0.5335650000000  0.4444830000000  0.5554320000000 1.0
C      1  0.5337040000000  0.5554510000000  0.4445860000000 1.0
C      1  0.5029110000000  0.4983380000000  0.4389860000000 1.0
C      1  0.5028820000000  0.5016570000000  0.5610160000000 1.0
C      1  0.4435620000000  0.4764940000000  0.5051650000000 1.0
C      1  0.4436110000000  0.5236180000000  0.4948050000000 1.0
C      1  0.4685970000000  0.5583670000000  0.5432080000000 1.0
C      1  0.4685050000000  0.4416950000000  0.4567750000000 1.0
C      1  0.4803410000000  0.4387370000000  0.4905850000000 1.0
C      1  0.4804570000000  0.5613020000000  0.5094040000000 1.0
C      1  0.4507430000000  0.4333740000000  0.5102500000000 1.0
C      1  0.4508800000000  0.5667230000000  0.4897240000000 1.0
C      1  0.4931840000000  0.5657720000000  0.4726530000000 1.0
C      1  0.4930390000000  0.4342410000000  0.5273430000000 1.0
C      1  0.5682810000000  0.5348840000000  0.5342550000000 1.0
C      1  0.5682300000000  0.4649820000000  0.4657810000000 1.0
C      1  0.4645430000000  0.5649730000000  0.5333260000000 1.0
C      1  0.4644320000000  0.4350970000000  0.4666550000000 1.0
C      1  0.4994900000000  0.5546210000000  0.5627820000000 1.0
C      1  0.4994160000000  0.4453800000000  0.4372180000000 1.0
C      1  0.4865410000000  0.4789370000000  0.5626020000000 1.0
C      1  0.4866160000000  0.5210890000000  0.4373910000000 1.0
C      1  0.4689650000000  0.4291210000000  0.4905360000000 1.0
C      1  0.4691000000000  0.5709400000000  0.5094470000000 1.0
C      1  0.4847210000000  0.5390400000000  0.5452180000000 1.0
C      1  0.4846680000000  0.4609910000000  0.4547740000000 1.0
C      1  0.4685540000000  0.5523760000000  0.4732350000000 1.0
C      1  0.4684360000000  0.4476860000000  0.5267490000000 1.0
C      1  0.5506520000000  0.5450350000000  0.4624000000000 1.0
C      1  0.5505430000000  0.4548650000000  0.5376270000000 1.0
C      1  0.5209310000000  0.5371150000000  0.5138610000000 1.0
C      1  0.5208660000000  0.4628430000000  0.4861500000000 1.0
C      1  0.4819310000000  0.4871570000000  0.4549460000000 1.0
C      1  0.4819320000000  0.5128790000000  0.5450450000000 1.0
C      1  0.5108380000000  0.4520910000000  0.4351590000000 1.0
C      1  0.5108980000000  0.5478880000000  0.5648470000000 1.0
C      1  0.4444900000000  0.5136220000000  0.4660490000000 1.0
C      1  0.4444450000000  0.4864880000000  0.5339220000000 1.0
C      1  0.4980080000000  0.4235030000000  0.4799280000000 1.0
C      1  0.4981490000000  0.5765000000000  0.5200710000000 1.0
C      1  0.5312500000000  0.4723290000000  0.5337710000000 1.0
C      1  0.5313230000000  0.5276090000000  0.4662460000000 1.0
C      1  0.4896080000000  0.4455110000000  0.5350790000000 1.0
C      1  0.4897350000000  0.5545100000000  0.4649150000000 1.0
C      1  0.5623890000000  0.4832290000000  0.4955850000000 1.0
C      1  0.5624190000000  0.5166480000000  0.5044490000000 1.0
C      1  0.5472070000000  0.5011060000000  0.4859320000000 1.0
C      1  0.5471970000000  0.4988010000000  0.5140940000000 1.0
C      1  0.4466110000000  0.5544940000000  0.4847130000000 1.0
C      1  0.4464960000000  0.4456120000000  0.5152590000000 1.0
C      1  0.4783390000000  0.5525530000000  0.5518260000000 1.0
C      1  0.4782630000000  0.4474900000000  0.4481620000000 1.0
C      1  0.4600940000000  0.5143040000000  0.5505780000000 1.0
C      1  0.4600930000000  0.4857740000000  0.4494010000000 1.0
C      1  0.5463310000000  0.4690920000000  0.5121260000000 1.0
C      1  0.5463980000000  0.5308160000000  0.4878980000000 1.0
C      1  0.4909650000000  0.4387800000000  0.4452870000000 1.0
C      1  0.4910570000000  0.5612380000000  0.5547080000000 1.0
C      1  0.5098550000000  0.4372740000000  0.5088430000000 1.0
C      1  0.5099830000000  0.5627060000000  0.4911630000000 1.0
C      1  0.5195490000000  0.5572880000000  0.4994800000000 1.0
C      1  0.5194350000000  0.4426740000000  0.5005300000000 1.0
C      1  0.4415850000000  0.5256400000000  0.5374820000000 1.0
C      1  0.4415540000000  0.4744750000000  0.4624870000000 1.0
C      1  0.5357160000000  0.4720750000000  0.4522360000000 1.0
C      1  0.5357460000000  0.5278550000000  0.5477830000000 1.0
C      1  0.4960890000000  0.4239600000000  0.4659830000000 1.0
C      1  0.4962210000000  0.5760480000000  0.5340150000000 1.0
C      1  0.4522040000000  0.5185170000000  0.5036450000000 1.0
C      1  0.4521700000000  0.4815780000000  0.4963290000000 1.0
C      1  0.5218830000000  0.4524300000000  0.4456140000000 1.0
C      1  0.5219480000000  0.5475270000000  0.5543980000000 1.0
C      1  0.4783630000000  0.4791960000000  0.5400490000000 1.0
C      1  0.4784250000000  0.5208470000000  0.4599400000000 1.0
C      1  0.5348210000000  0.5857900000000  0.4702720000000 1.0
C      1  0.5346360000000  0.4141410000000  0.5297460000000 1.0
C      1  0.5355970000000  0.4788330000000  0.4624900000000 1.0
C      1  0.5356190000000  0.5210970000000  0.5375290000000 1.0
C      1  0.4792670000000  0.4731670000000  0.4524370000000 1.0
C      1  0.4792950000000  0.5268740000000  0.5475520000000 1.0
C      1  0.4289340000000  0.5186490000000  0.5377570000000 1.0
C      1  0.4289180000000  0.4814910000000  0.4622050000000 1.0
C      1  0.4468580000000  0.4840150000000  0.4518540000000 1.0
C      1  0.4468640000000  0.5160900000000  0.5481170000000 1.0
C      1  0.4611100000000  0.5721460000000  0.4975490000000 1.0
C      1  0.4609670000000  0.4279310000000  0.5024300000000 1.0
C      1  0.5202610000000  0.5212540000000  0.4605260000000 1.0
C      1  0.5201980000000  0.4787060000000  0.5394850000000 1.0
C      1  0.4941300000000  0.4584460000000  0.4776410000000 1.0
C      1  0.4942000000000  0.5415650000000  0.5223560000000 1.0
C      1  0.4691920000000  0.4921710000000  0.4589470000000 1.0
C      1  0.4691860000000  0.5078900000000  0.5410370000000 1.0
C      1  0.5661500000000  0.5316920000000  0.4704740000000 1.0
C      1  0.5660710000000  0.4681780000000  0.5295620000000 1.0
C      1  0.4501120000000  0.4704450000000  0.4725160000000 1.0
C      1  0.4501560000000  0.5296540000000  0.5274570000000 1.0
C      1  0.5681270000000  0.5233290000000  0.4811160000000 1.0
C      1  0.5680700000000  0.4765370000000  0.5189200000000 1.0
C      1  0.5277210000000  0.4131160000000  0.5187770000000 1.0
C      1  0.5279020000000  0.5868290000000  0.4812380000000 1.0
C      1  0.5514650000000  0.4554910000000  0.5140480000000 1.0
C      1  0.5515600000000  0.5444080000000  0.4859790000000 1.0
C      1  0.4817790000000  0.4323770000000  0.5477200000000 1.0
C      1  0.4819380000000  0.5676590000000  0.4522700000000 1.0
C      1  0.5455880000000  0.4437970000000  0.5058670000000 1.0
C      1  0.5457020000000  0.5561130000000  0.4941570000000 1.0
C      1  0.4592360000000  0.5052400000000  0.5046550000000 1.0
C      1  0.4592290000000  0.4948410000000  0.4953230000000 1.0
C      1  0.5376660000000  0.4900390000000  0.5189180000000 1.0
C      1  0.5376960000000  0.5098870000000  0.4811020000000 1.0
C      1  0.5017850000000  0.5516560000000  0.5152150000000 1.0
C      1  0.5016910000000  0.4483410000000  0.4847860000000 1.0
END
