TITL C-616442-5639-172 -73.6688922718228 1000000 -3701.92828997039 0 0 520 (C1) n - 1
REM
REM in /scratch/bkarasulu/Only-C240/Try3-MINAMP_3A
REM
REM
REM
REM
REM
REM ./C.cell (f32e41d00214329c4e9f45795b8b8290)
REM
REM compiler GCC version 9.2.1 20190827 (Red Hat 9.2.1-1)
REM options -cpp -mtune=generic -march=x86-64 -g -O0 -fpre-include=/usr/include/finclude/math-vector-fortran.h
REM seed 1956181110 -1088731122 -40003806 -1946323966 355596017 1648919946 -1557082021 2020621418 -1949377570 2028040645 -1710601929 -1800588128 1550480049 1113337259 1056856277 -1619864286 1791246183 -848641227 1827561818 1680747009 -1841999605 1659324294 -1575998419 -1339033490 902187958 1058438422 1785799634 -686468672 -1216205269 -1526733853 -942816740 617755650 214968982
REM
CELL 1.54180  100.00000  100.00000  100.00000   90.00000   90.00000   90.00000
LATT -1
SFAC C  
C      1  0.4998350000000  0.5106100000000  0.4787390000000 1.0
C      1  0.5109830000000  0.4781430000000  0.4997210000000 1.0
C      1  0.4776880000000  0.5002850000000  0.5107330000000 1.0
C      1  0.4994410000000  0.5112860000000  0.5213140000000 1.0
C      1  0.4997890000000  0.4891100000000  0.4781980000000 1.0
C      1  0.4991800000000  0.4895740000000  0.5207090000000 1.0
C      1  0.4890140000000  0.4787410000000  0.5002750000000 1.0
C      1  0.4888100000000  0.5220220000000  0.4998450000000 1.0
C      1  0.5105720000000  0.5209340000000  0.5007360000000 1.0
C      1  0.5216850000000  0.4991740000000  0.4896540000000 1.0
C      1  0.5223970000000  0.4987050000000  0.5111710000000 1.0
C      1  0.4781110000000  0.5004070000000  0.4888990000000 1.0
C      1  0.4779330000000  0.5112780000000  0.4995870000000 1.0
C      1  0.4999290000000  0.4782120000000  0.5105880000000 1.0
C      1  0.5106940000000  0.4995270000000  0.4787890000000 1.0
C      1  0.5216720000000  0.5098770000000  0.5008770000000 1.0
C      1  0.4779900000000  0.4895240000000  0.5001100000000 1.0
C      1  0.5224900000000  0.4882210000000  0.5002230000000 1.0
C      1  0.4999850000000  0.4786910000000  0.4892330000000 1.0
C      1  0.4997720000000  0.5212970000000  0.4895490000000 1.0
C      1  0.4994890000000  0.5220210000000  0.5108900000000 1.0
C      1  0.4885340000000  0.5003660000000  0.5213530000000 1.0
C      1  0.5103180000000  0.5004810000000  0.5205840000000 1.0
C      1  0.4889990000000  0.5001710000000  0.4781690000000 1.0
C      1  0.4752820000000  0.5835610000000  0.4854500000000 1.0
C      1  0.5833440000000  0.4855050000000  0.4750550000000 1.0
C      1  0.4864590000000  0.4751950000000  0.5821040000000 1.0
C      1  0.5248780000000  0.5831660000000  0.5147150000000 1.0
C      1  0.5251190000000  0.4169550000000  0.4851880000000 1.0
C      1  0.4754650000000  0.4175100000000  0.5142450000000 1.0
C      1  0.4167060000000  0.4856360000000  0.5249250000000 1.0
C      1  0.4168340000000  0.5150100000000  0.4749750000000 1.0
C      1  0.5834600000000  0.5144330000000  0.5248860000000 1.0
C      1  0.5145230000000  0.4754120000000  0.4168010000000 1.0
C      1  0.5150180000000  0.5249330000000  0.5831360000000 1.0
C      1  0.4855970000000  0.5251300000000  0.4168750000000 1.0
C      1  0.4856480000000  0.5833880000000  0.4752730000000 1.0
C      1  0.4759780000000  0.4853030000000  0.5827550000000 1.0
C      1  0.5835940000000  0.4751460000000  0.4852480000000 1.0
C      1  0.5146100000000  0.5834710000000  0.5250020000000 1.0
C      1  0.4858460000000  0.4171480000000  0.5245230000000 1.0
C      1  0.5147670000000  0.4170040000000  0.4749560000000 1.0
C      1  0.5248020000000  0.4856780000000  0.4169100000000 1.0
C      1  0.4752250000000  0.5149590000000  0.4166600000000 1.0
C      1  0.5253090000000  0.5146030000000  0.5829010000000 1.0
C      1  0.4167900000000  0.4753960000000  0.5146360000000 1.0
C      1  0.5832600000000  0.5247590000000  0.5146640000000 1.0
C      1  0.4168100000000  0.5252750000000  0.4852120000000 1.0
C      1  0.4920850000000  0.5744250000000  0.5302850000000 1.0
C      1  0.5745820000000  0.5302210000000  0.4923400000000 1.0
C      1  0.5312780000000  0.4922930000000  0.5740500000000 1.0
C      1  0.5080230000000  0.5745560000000  0.4700400000000 1.0
C      1  0.5084030000000  0.4264590000000  0.5297080000000 1.0
C      1  0.4922960000000  0.4256000000000  0.4691170000000 1.0
C      1  0.4259360000000  0.5305500000000  0.5076020000000 1.0
C      1  0.4260970000000  0.4703340000000  0.4921370000000 1.0
C      1  0.5744500000000  0.4699710000000  0.5076340000000 1.0
C      1  0.4699170000000  0.4924210000000  0.4256730000000 1.0
C      1  0.4703210000000  0.5079790000000  0.5740150000000 1.0
C      1  0.5302190000000  0.5079770000000  0.4256750000000 1.0
C      1  0.5302230000000  0.5744280000000  0.4924010000000 1.0
C      1  0.4924280000000  0.5303440000000  0.5739760000000 1.0
C      1  0.5743070000000  0.4921270000000  0.5300000000000 1.0
C      1  0.4699540000000  0.5745270000000  0.5079470000000 1.0
C      1  0.5304570000000  0.4265250000000  0.5076560000000 1.0
C      1  0.4706780000000  0.4253040000000  0.4912110000000 1.0
C      1  0.5079750000000  0.5302950000000  0.4257310000000 1.0
C      1  0.4920760000000  0.4702730000000  0.4259430000000 1.0
C      1  0.5093790000000  0.4709050000000  0.5736270000000 1.0
C      1  0.4260930000000  0.4926210000000  0.4696800000000 1.0
C      1  0.5745670000000  0.5079150000000  0.4698930000000 1.0
C      1  0.4259140000000  0.5080990000000  0.5300990000000 1.0
C      1  0.4615620000000  0.4871950000000  0.4765920000000 1.0
C      1  0.4868250000000  0.4756820000000  0.4616660000000 1.0
C      1  0.4772030000000  0.4592230000000  0.4907440000000 1.0
C      1  0.5385880000000  0.4871860000000  0.5304010000000 1.0
C      1  0.5395770000000  0.5117680000000  0.4777710000000 1.0
C      1  0.4608010000000  0.5126010000000  0.5231220000000 1.0
C      1  0.5094450000000  0.4802220000000  0.5399720000000 1.0
C      1  0.5120400000000  0.5230160000000  0.4608640000000 1.0
C      1  0.4869900000000  0.5237370000000  0.5386610000000 1.0
C      1  0.5228410000000  0.4621990000000  0.5135890000000 1.0
C      1  0.5227340000000  0.5391960000000  0.4894720000000 1.0
C      1  0.4763230000000  0.5394030000000  0.5123960000000 1.0
C      1  0.4767460000000  0.4874650000000  0.4606830000000 1.0
C      1  0.4613450000000  0.4761410000000  0.4878970000000 1.0
C      1  0.4876820000000  0.4603070000000  0.4787610000000 1.0
C      1  0.5167000000000  0.4933830000000  0.5411250000000 1.0
C      1  0.4763650000000  0.5128540000000  0.5388830000000 1.0
C      1  0.5229930000000  0.5118590000000  0.4608760000000 1.0
C      1  0.5409900000000  0.4713190000000  0.5096920000000 1.0
C      1  0.4610040000000  0.5236040000000  0.5119530000000 1.0
C      1  0.5394230000000  0.5225330000000  0.4891400000000 1.0
C      1  0.5125570000000  0.4623990000000  0.5254040000000 1.0
C      1  0.4868170000000  0.5393310000000  0.5233270000000 1.0
C      1  0.5119440000000  0.5394730000000  0.4779910000000 1.0
C      1  0.4922120000000  0.5620020000000  0.5195090000000 1.0
C      1  0.5632590000000  0.5192250000000  0.4926300000000 1.0
C      1  0.5200930000000  0.4934450000000  0.5631580000000 1.0
C      1  0.5078350000000  0.5632380000000  0.4810610000000 1.0
C      1  0.5079530000000  0.4382510000000  0.5191980000000 1.0
C      1  0.4930290000000  0.4370220000000  0.4801640000000 1.0
C      1  0.4366220000000  0.5185710000000  0.5065670000000 1.0
C      1  0.4368370000000  0.4821800000000  0.4927050000000 1.0
C      1  0.5632530000000  0.4811740000000  0.5073970000000 1.0
C      1  0.4806110000000  0.4923860000000  0.4380540000000 1.0
C      1  0.4811260000000  0.5081130000000  0.5614260000000 1.0
C      1  0.5191970000000  0.5076400000000  0.4371460000000 1.0
C      1  0.5191530000000  0.5631790000000  0.4926770000000 1.0
C      1  0.4926430000000  0.5199430000000  0.5611330000000 1.0
C      1  0.5625060000000  0.4927020000000  0.5198810000000 1.0
C      1  0.4807870000000  0.5622410000000  0.5078540000000 1.0
C      1  0.5198280000000  0.4381730000000  0.5074270000000 1.0
C      1  0.4824420000000  0.4357280000000  0.4915830000000 1.0
C      1  0.5078100000000  0.5192310000000  0.4371340000000 1.0
C      1  0.4918860000000  0.4805720000000  0.4386250000000 1.0
C      1  0.5091380000000  0.4826150000000  0.5634910000000 1.0
C      1  0.4369850000000  0.4933470000000  0.4814100000000 1.0
C      1  0.5633130000000  0.5079180000000  0.4809700000000 1.0
C      1  0.4364460000000  0.5074290000000  0.5179610000000 1.0
C      1  0.5662000000000  0.4549870000000  0.5244630000000 1.0
C      1  0.4558380000000  0.5246840000000  0.5648550000000 1.0
C      1  0.5245060000000  0.5647100000000  0.4559800000000 1.0
C      1  0.4349120000000  0.4558120000000  0.4752780000000 1.0
C      1  0.4349510000000  0.5449660000000  0.5245210000000 1.0
C      1  0.5646540000000  0.5442310000000  0.4759190000000 1.0
C      1  0.5442680000000  0.5244180000000  0.4356120000000 1.0
C      1  0.5455390000000  0.4755670000000  0.5643250000000 1.0
C      1  0.4554180000000  0.4757780000000  0.4346860000000 1.0
C      1  0.4753720000000  0.5652610000000  0.5446060000000 1.0
C      1  0.4756090000000  0.4355500000000  0.4551520000000 1.0
C      1  0.5255020000000  0.4347120000000  0.5443520000000 1.0
C      1  0.5257180000000  0.4555860000000  0.5643070000000 1.0
C      1  0.5647020000000  0.5244160000000  0.4559120000000 1.0
C      1  0.4556100000000  0.5651770000000  0.5245590000000 1.0
C      1  0.4753970000000  0.4558610000000  0.4347040000000 1.0
C      1  0.5244570000000  0.5442900000000  0.4356510000000 1.0
C      1  0.4755580000000  0.5446060000000  0.5649350000000 1.0
C      1  0.4349930000000  0.5248550000000  0.5446300000000 1.0
C      1  0.5663680000000  0.4752260000000  0.5447470000000 1.0
C      1  0.4349470000000  0.4757990000000  0.4551500000000 1.0
C      1  0.5443410000000  0.5645860000000  0.4759600000000 1.0
C      1  0.4557140000000  0.4356310000000  0.4751700000000 1.0
C      1  0.5454920000000  0.4347130000000  0.5244050000000 1.0
C      1  0.4559370000000  0.5229110000000  0.4884800000000 1.0
C      1  0.5232320000000  0.4853310000000  0.4605680000000 1.0
C      1  0.4890530000000  0.4553710000000  0.5218880000000 1.0
C      1  0.5395650000000  0.5225670000000  0.5157640000000 1.0
C      1  0.5452220000000  0.4779780000000  0.4886050000000 1.0
C      1  0.4553930000000  0.4778480000000  0.5113150000000 1.0
C      1  0.4780790000000  0.4890010000000  0.5441350000000 1.0
C      1  0.4783380000000  0.5112480000000  0.4552910000000 1.0
C      1  0.5239090000000  0.5174230000000  0.5365000000000 1.0
C      1  0.5132360000000  0.4592520000000  0.4765910000000 1.0
C      1  0.5109260000000  0.5445280000000  0.5222780000000 1.0
C      1  0.4855340000000  0.5397870000000  0.4767320000000 1.0
C      1  0.4855930000000  0.5234660000000  0.4604180000000 1.0
C      1  0.4553990000000  0.4892590000000  0.5226150000000 1.0
C      1  0.5219220000000  0.4557230000000  0.4883650000000 1.0
C      1  0.5113670000000  0.5228810000000  0.5434320000000 1.0
C      1  0.4836270000000  0.4763980000000  0.5373890000000 1.0
C      1  0.5107660000000  0.4781870000000  0.4555750000000 1.0
C      1  0.5399230000000  0.4853530000000  0.4765630000000 1.0
C      1  0.4560340000000  0.5113200000000  0.4771010000000 1.0
C      1  0.5449240000000  0.5102360000000  0.5224560000000 1.0
C      1  0.4765450000000  0.4621660000000  0.5166130000000 1.0
C      1  0.5232930000000  0.5383580000000  0.5163550000000 1.0
C      1  0.4782910000000  0.5449780000000  0.4888550000000 1.0
C      1  0.4639580000000  0.4438420000000  0.4533400000000 1.0
C      1  0.4433510000000  0.4540370000000  0.4636960000000 1.0
C      1  0.4535600000000  0.4641680000000  0.4430210000000 1.0
C      1  0.5373520000000  0.4429170000000  0.5462870000000 1.0
C      1  0.5359540000000  0.5563480000000  0.4542090000000 1.0
C      1  0.4638560000000  0.5568440000000  0.5463990000000 1.0
C      1  0.5581810000000  0.4530040000000  0.5363160000000 1.0
C      1  0.5563230000000  0.5460160000000  0.4644350000000 1.0
C      1  0.4433020000000  0.5466470000000  0.5361470000000 1.0
C      1  0.5477940000000  0.4635920000000  0.5565400000000 1.0
C      1  0.5460940000000  0.5358950000000  0.4439650000000 1.0
C      1  0.4537950000000  0.5363130000000  0.5565960000000 1.0
C      1  0.4536130000000  0.4436830000000  0.4634470000000 1.0
C      1  0.4637850000000  0.4540050000000  0.4429880000000 1.0
C      1  0.4433250000000  0.4642000000000  0.4534110000000 1.0
C      1  0.5476640000000  0.4428130000000  0.5362110000000 1.0
C      1  0.4537000000000  0.5568560000000  0.5361520000000 1.0
C      1  0.5460920000000  0.5562700000000  0.4644560000000 1.0
C      1  0.5375670000000  0.4533280000000  0.5565200000000 1.0
C      1  0.4639460000000  0.5465080000000  0.5566070000000 1.0
C      1  0.5359350000000  0.5460940000000  0.4439800000000 1.0
C      1  0.5583300000000  0.4633290000000  0.5465790000000 1.0
C      1  0.4433450000000  0.5364110000000  0.5463840000000 1.0
C      1  0.5563650000000  0.5358890000000  0.4541740000000 1.0
C      1  0.5208730000000  0.5725950000000  0.5317370000000 1.0
C      1  0.5720950000000  0.5308910000000  0.5211470000000 1.0
C      1  0.5311160000000  0.5208190000000  0.5714430000000 1.0
C      1  0.4792100000000  0.5723530000000  0.4688980000000 1.0
C      1  0.4798140000000  0.4281710000000  0.5312270000000 1.0
C      1  0.5210450000000  0.4281990000000  0.4686860000000 1.0
C      1  0.4275220000000  0.5320520000000  0.4786010000000 1.0
C      1  0.4274760000000  0.4686320000000  0.5212820000000 1.0
C      1  0.5726650000000  0.4684640000000  0.4790620000000 1.0
C      1  0.4685380000000  0.5213440000000  0.4274760000000 1.0
C      1  0.4692980000000  0.4793510000000  0.5716810000000 1.0
C      1  0.5310660000000  0.4792160000000  0.4279840000000 1.0
C      1  0.5309640000000  0.5719390000000  0.5211190000000 1.0
C      1  0.5211580000000  0.5316530000000  0.5721640000000 1.0
C      1  0.5726570000000  0.5206860000000  0.5317170000000 1.0
C      1  0.4685740000000  0.5727880000000  0.4790110000000 1.0
C      1  0.5317040000000  0.4279440000000  0.4788610000000 1.0
C      1  0.4696950000000  0.4290260000000  0.5205080000000 1.0
C      1  0.4791750000000  0.5314480000000  0.4279380000000 1.0
C      1  0.5208830000000  0.4686590000000  0.4275820000000 1.0
C      1  0.4802180000000  0.4695550000000  0.5705260000000 1.0
C      1  0.4275400000000  0.5216030000000  0.4681610000000 1.0
C      1  0.5722010000000  0.4790370000000  0.4688350000000 1.0
C      1  0.4274210000000  0.4790790000000  0.5317500000000 1.0
C      1  0.5515700000000  0.4884160000000  0.5607420000000 1.0
C      1  0.4881000000000  0.5616610000000  0.5509860000000 1.0
C      1  0.5610040000000  0.5504480000000  0.4887280000000 1.0
C      1  0.4492010000000  0.4885950000000  0.4383350000000 1.0
C      1  0.4494650000000  0.5119690000000  0.5613740000000 1.0
C      1  0.5504860000000  0.5116340000000  0.4392400000000 1.0
C      1  0.5117200000000  0.5610070000000  0.4497800000000 1.0
C      1  0.5127360000000  0.4388790000000  0.5502080000000 1.0
C      1  0.4883840000000  0.4392950000000  0.4489810000000 1.0
C      1  0.4387390000000  0.5512490000000  0.5116950000000 1.0
C      1  0.4387990000000  0.4497210000000  0.4880460000000 1.0
C      1  0.5622330000000  0.4489300000000  0.5115810000000 1.0
C      1  0.5625090000000  0.4881460000000  0.5509040000000 1.0
C      1  0.5505420000000  0.5608680000000  0.4887550000000 1.0
C      1  0.4882120000000  0.5511180000000  0.5614270000000 1.0
C      1  0.4387520000000  0.4886290000000  0.4489070000000 1.0
C      1  0.5609560000000  0.5116250000000  0.4496920000000 1.0
C      1  0.4388960000000  0.5120440000000  0.5508370000000 1.0
C      1  0.4492430000000  0.5617670000000  0.5117600000000 1.0
C      1  0.5514910000000  0.4385740000000  0.5115050000000 1.0
C      1  0.4499380000000  0.4401060000000  0.4878390000000 1.0
C      1  0.5117030000000  0.5505400000000  0.4393140000000 1.0
C      1  0.4882070000000  0.4495310000000  0.4383320000000 1.0
C      1  0.5130090000000  0.4500840000000  0.5595140000000 1.0
C      1  0.4897960000000  0.5903740000000  0.5001420000000 1.0
C      1  0.5907490000000  0.5002880000000  0.4894330000000 1.0
C      1  0.5009310000000  0.4894470000000  0.5900210000000 1.0
C      1  0.5105910000000  0.5905930000000  0.4999790000000 1.0
C      1  0.5105810000000  0.4101210000000  0.4997400000000 1.0
C      1  0.4897370000000  0.4095420000000  0.4995950000000 1.0
C      1  0.4106530000000  0.5004030000000  0.5102600000000 1.0
C      1  0.4107760000000  0.5003110000000  0.4896160000000 1.0
C      1  0.5904930000000  0.4999590000000  0.5101820000000 1.0
C      1  0.4999770000000  0.4899960000000  0.4098970000000 1.0
C      1  0.5005390000000  0.5102820000000  0.5898910000000 1.0
C      1  0.5002950000000  0.5107590000000  0.4096090000000 1.0
C      1  0.5003640000000  0.5906310000000  0.4896840000000 1.0
C      1  0.4903090000000  0.4999390000000  0.5899010000000 1.0
C      1  0.5905230000000  0.4897440000000  0.4998740000000 1.0
C      1  0.5000340000000  0.5903300000000  0.5104650000000 1.0
C      1  0.5003380000000  0.4099190000000  0.5100730000000 1.0
C      1  0.4999530000000  0.4097850000000  0.4892700000000 1.0
C      1  0.5105380000000  0.5004750000000  0.4095790000000 1.0
C      1  0.4897400000000  0.5003000000000  0.4098690000000 1.0
C      1  0.5111580000000  0.4997480000000  0.5901070000000 1.0
C      1  0.4107040000000  0.4900460000000  0.4999190000000 1.0
C      1  0.5907390000000  0.5105280000000  0.4997480000000 1.0
C      1  0.4107070000000  0.5106660000000  0.4999670000000 1.0
C      1  0.4430620000000  0.4852730000000  0.5053440000000 1.0
C      1  0.4851190000000  0.5055080000000  0.4433630000000 1.0
C      1  0.5031380000000  0.4388350000000  0.4918070000000 1.0
C      1  0.5571190000000  0.4850850000000  0.4945620000000 1.0
C      1  0.5612760000000  0.5077110000000  0.5024290000000 1.0
C      1  0.4435440000000  0.5155160000000  0.4942050000000 1.0
C      1  0.5082430000000  0.5036850000000  0.5616430000000 1.0
C      1  0.5076710000000  0.4977630000000  0.4390370000000 1.0
C      1  0.4858470000000  0.4950250000000  0.5559020000000 1.0
C      1  0.4950700000000  0.4436540000000  0.5144870000000 1.0
C      1  0.4978060000000  0.5612890000000  0.4924110000000 1.0
C      1  0.5053090000000  0.5564660000000  0.5150700000000 1.0
C      1  0.5049270000000  0.4852560000000  0.4439160000000 1.0
C      1  0.4436770000000  0.5057200000000  0.4844720000000 1.0
C      1  0.4932630000000  0.4384810000000  0.5018400000000 1.0
C      1  0.4985010000000  0.4934150000000  0.5611250000000 1.0
C      1  0.5056810000000  0.5155610000000  0.5554180000000 1.0
C      1  0.4978350000000  0.5078640000000  0.4390140000000 1.0
C      1  0.5567860000000  0.5051360000000  0.5151500000000 1.0
C      1  0.4430470000000  0.4950190000000  0.5150720000000 1.0
C      1  0.5612770000000  0.4979100000000  0.4922860000000 1.0
C      1  0.5155910000000  0.4436600000000  0.4944790000000 1.0
C      1  0.4851580000000  0.5567940000000  0.4947660000000 1.0
C      1  0.5076580000000  0.5612370000000  0.5024830000000 1.0
C      1  0.4489880000000  0.4700220000000  0.5407750000000 1.0
C      1  0.4695650000000  0.5409600000000  0.4488980000000 1.0
C      1  0.5406120000000  0.4492570000000  0.4696060000000 1.0
C      1  0.5514380000000  0.4692230000000  0.4589870000000 1.0
C      1  0.5517670000000  0.5306940000000  0.5409150000000 1.0
C      1  0.4492960000000  0.5304410000000  0.4594120000000 1.0
C      1  0.5300330000000  0.5409200000000  0.5509200000000 1.0
C      1  0.5301960000000  0.4596680000000  0.4487300000000 1.0
C      1  0.4695290000000  0.4592350000000  0.5508020000000 1.0
C      1  0.4589580000000  0.4489740000000  0.5313050000000 1.0
C      1  0.4596860000000  0.5513400000000  0.4698310000000 1.0
C      1  0.5408280000000  0.5511390000000  0.5311630000000 1.0
C      1  0.5407910000000  0.4693730000000  0.4487240000000 1.0
C      1  0.4492210000000  0.5408760000000  0.4697120000000 1.0
C      1  0.4694510000000  0.4482480000000  0.5411180000000 1.0
C      1  0.4596220000000  0.4699630000000  0.5509020000000 1.0
C      1  0.5407660000000  0.5308570000000  0.5506620000000 1.0
C      1  0.4597710000000  0.5303870000000  0.4489720000000 1.0
C      1  0.5515000000000  0.5409220000000  0.5311850000000 1.0
C      1  0.4485710000000  0.4594820000000  0.5309270000000 1.0
C      1  0.5513930000000  0.4593550000000  0.4695110000000 1.0
C      1  0.5303190000000  0.4493960000000  0.4592720000000 1.0
C      1  0.4695530000000  0.5514060000000  0.4593200000000 1.0
C      1  0.5300570000000  0.5514630000000  0.5407460000000 1.0
C      1  0.5429490000000  0.4326730000000  0.5014300000000 1.0
C      1  0.4325890000000  0.5019530000000  0.5425650000000 1.0
C      1  0.5017090000000  0.5422440000000  0.4329720000000 1.0
C      1  0.4612470000000  0.4375720000000  0.4974380000000 1.0
C      1  0.4575410000000  0.5681620000000  0.5016810000000 1.0
C      1  0.5419580000000  0.5668040000000  0.4988090000000 1.0
C      1  0.5672120000000  0.5016060000000  0.4580000000000 1.0
C      1  0.5683910000000  0.4983270000000  0.5427300000000 1.0
C      1  0.4325300000000  0.4987650000000  0.4571860000000 1.0
C      1  0.4984090000000  0.5429280000000  0.5678520000000 1.0
C      1  0.4982690000000  0.4577490000000  0.4320300000000 1.0
C      1  0.5036640000000  0.4617590000000  0.5613320000000 1.0
C      1  0.5024220000000  0.4327110000000  0.5422040000000 1.0
C      1  0.5421130000000  0.5016420000000  0.4329480000000 1.0
C      1  0.4325220000000  0.5429930000000  0.5015010000000 1.0
C      1  0.4985120000000  0.4329000000000  0.4572080000000 1.0
C      1  0.5017380000000  0.5673180000000  0.4580960000000 1.0
C      1  0.4981810000000  0.5681420000000  0.5427740000000 1.0
C      1  0.4578580000000  0.5018520000000  0.5676840000000 1.0
C      1  0.5428980000000  0.4986650000000  0.5664580000000 1.0
C      1  0.4575090000000  0.4986670000000  0.4319960000000 1.0
C      1  0.5671370000000  0.5420070000000  0.4987380000000 1.0
C      1  0.4327240000000  0.4579610000000  0.4982520000000 1.0
C      1  0.5681340000000  0.4573930000000  0.5014490000000 1.0
C      1  0.5361920000000  0.5466940000000  0.5162070000000 1.0
C      1  0.5484990000000  0.5143420000000  0.5366100000000 1.0
C      1  0.5143960000000  0.5371870000000  0.5477090000000 1.0
C      1  0.4636120000000  0.5482320000000  0.4852800000000 1.0
C      1  0.4637150000000  0.4540620000000  0.5167620000000 1.0
C      1  0.5368170000000  0.4525530000000  0.4849510000000 1.0
C      1  0.4526330000000  0.5150300000000  0.4630980000000 1.0
C      1  0.4522730000000  0.4853950000000  0.5367550000000 1.0
C      1  0.5474960000000  0.4845580000000  0.4634280000000 1.0
C      1  0.4847630000000  0.5366260000000  0.4526580000000 1.0
C      1  0.4838820000000  0.4637170000000  0.5455980000000 1.0
C      1  0.5145540000000  0.4637610000000  0.4518870000000 1.0
C      1  0.5142890000000  0.5483260000000  0.5368060000000 1.0
C      1  0.5364250000000  0.5160910000000  0.5458720000000 1.0
C      1  0.5473390000000  0.5359390000000  0.5161170000000 1.0
C      1  0.4847990000000  0.5475640000000  0.4636160000000 1.0
C      1  0.5150790000000  0.4532960000000  0.4634080000000 1.0
C      1  0.4853620000000  0.4517570000000  0.5361430000000 1.0
C      1  0.4636820000000  0.5149060000000  0.4519860000000 1.0
C      1  0.5363790000000  0.4844430000000  0.4526270000000 1.0
C      1  0.4635790000000  0.4856130000000  0.5477700000000 1.0
C      1  0.4525460000000  0.5370320000000  0.4850300000000 1.0
C      1  0.5483700000000  0.4633070000000  0.4848520000000 1.0
C      1  0.4519860000000  0.4639230000000  0.5155910000000 1.0
C      1  0.5247900000000  0.5008570000000  0.5854830000000 1.0
C      1  0.5008170000000  0.5851710000000  0.5237440000000 1.0
C      1  0.5857840000000  0.5239660000000  0.5009400000000 1.0
C      1  0.4764680000000  0.5011750000000  0.4149730000000 1.0
C      1  0.4769830000000  0.4991300000000  0.5847300000000 1.0
C      1  0.5240010000000  0.4994190000000  0.4144630000000 1.0
C      1  0.4993820000000  0.5857450000000  0.4762270000000 1.0
C      1  0.4996470000000  0.4153590000000  0.5232850000000 1.0
C      1  0.5010020000000  0.4145090000000  0.4757010000000 1.0
C      1  0.4149610000000  0.5242080000000  0.4989760000000 1.0
C      1  0.4151040000000  0.4765560000000  0.5008640000000 1.0
C      1  0.5854770000000  0.4764340000000  0.4989490000000 1.0
C      1  0.5851720000000  0.5007400000000  0.5233710000000 1.0
C      1  0.5240560000000  0.5856730000000  0.5010050000000 1.0
C      1  0.5011860000000  0.5236430000000  0.5847590000000 1.0
C      1  0.4151500000000  0.5012430000000  0.4761220000000 1.0
C      1  0.5857620000000  0.4992250000000  0.4760090000000 1.0
C      1  0.4149220000000  0.4993950000000  0.5238100000000 1.0
C      1  0.4764950000000  0.5852870000000  0.4992390000000 1.0
C      1  0.5238330000000  0.4154580000000  0.4989660000000 1.0
C      1  0.4759470000000  0.4143030000000  0.5005510000000 1.0
C      1  0.4993360000000  0.5241880000000  0.4145370000000 1.0
C      1  0.5007550000000  0.4768060000000  0.4152190000000 1.0
C      1  0.5001660000000  0.4757890000000  0.5849890000000 1.0
C      1  0.5503250000000  0.5236790000000  0.5604800000000 1.0
C      1  0.5233510000000  0.5609440000000  0.5509790000000 1.0
C      1  0.5605460000000  0.5508670000000  0.5233400000000 1.0
C      1  0.4495220000000  0.5238140000000  0.4393360000000 1.0
C      1  0.4496190000000  0.4767270000000  0.5606980000000 1.0
C      1  0.5508880000000  0.4769190000000  0.4393130000000 1.0
C      1  0.4770030000000  0.5608420000000  0.4491750000000 1.0
C      1  0.4775600000000  0.4396980000000  0.5514460000000 1.0
C      1  0.5234350000000  0.4397150000000  0.4491990000000 1.0
C      1  0.4395550000000  0.5513120000000  0.4762120000000 1.0
C      1  0.4394910000000  0.4489350000000  0.5233050000000 1.0
C      1  0.5608230000000  0.4488570000000  0.4760230000000 1.0
C      1  0.5606250000000  0.5234210000000  0.5512750000000 1.0
C      1  0.5506880000000  0.5604850000000  0.5234490000000 1.0
C      1  0.5234510000000  0.5511250000000  0.5606950000000 1.0
C      1  0.4396230000000  0.5240530000000  0.4489310000000 1.0
C      1  0.5607090000000  0.4768540000000  0.4489240000000 1.0
C      1  0.4395750000000  0.4766720000000  0.5512370000000 1.0
C      1  0.4494440000000  0.5609260000000  0.4764800000000 1.0
C      1  0.5508330000000  0.4393600000000  0.4760850000000 1.0
C      1  0.4496880000000  0.4396750000000  0.5231040000000 1.0
C      1  0.4769960000000  0.5511500000000  0.4394660000000 1.0
C      1  0.5232440000000  0.4493620000000  0.4393490000000 1.0
C      1  0.4778850000000  0.4500620000000  0.5605420000000 1.0
C      1  0.5324460000000  0.5208630000000  0.5022070000000 1.0
C      1  0.5206220000000  0.5033140000000  0.5314670000000 1.0
C      1  0.5001880000000  0.5332120000000  0.5217160000000 1.0
C      1  0.4670570000000  0.5224430000000  0.4985570000000 1.0
C      1  0.4667590000000  0.4785280000000  0.5012890000000 1.0
C      1  0.5336410000000  0.4769730000000  0.4988200000000 1.0
C      1  0.4783410000000  0.5008360000000  0.4669050000000 1.0
C      1  0.4778590000000  0.4994820000000  0.5327130000000 1.0
C      1  0.5213960000000  0.4988680000000  0.4678150000000 1.0
C      1  0.4989860000000  0.5324380000000  0.4789490000000 1.0
C      1  0.4993140000000  0.4670820000000  0.5218200000000 1.0
C      1  0.5010370000000  0.4675520000000  0.4786060000000 1.0
C      1  0.5003400000000  0.5223220000000  0.5324140000000 1.0
C      1  0.5331310000000  0.4992290000000  0.5233430000000 1.0
C      1  0.5214440000000  0.5317510000000  0.5024320000000 1.0
C      1  0.4990750000000  0.5214360000000  0.4677730000000 1.0
C      1  0.5001720000000  0.4780520000000  0.4673290000000 1.0
C      1  0.4972340000000  0.4788780000000  0.5315240000000 1.0
C      1  0.4671960000000  0.5010380000000  0.4777300000000 1.0
C      1  0.5325910000000  0.4987360000000  0.4788470000000 1.0
C      1  0.4667000000000  0.4992370000000  0.5219860000000 1.0
C      1  0.4781380000000  0.5332490000000  0.4990220000000 1.0
C      1  0.5215290000000  0.4669560000000  0.4991830000000 1.0
C      1  0.4780290000000  0.4680670000000  0.5026330000000 1.0
C      1  0.4669690000000  0.4774590000000  0.4260890000000 1.0
C      1  0.4772240000000  0.4265580000000  0.4662940000000 1.0
C      1  0.4263340000000  0.4673790000000  0.4770240000000 1.0
C      1  0.5342340000000  0.4772600000000  0.5730320000000 1.0
C      1  0.5331230000000  0.5229580000000  0.4266520000000 1.0
C      1  0.4673860000000  0.5229380000000  0.5735150000000 1.0
C      1  0.5235240000000  0.4263960000000  0.5327420000000 1.0
C      1  0.5230420000000  0.5735930000000  0.4671940000000 1.0
C      1  0.4770910000000  0.5739060000000  0.5330890000000 1.0
C      1  0.5744340000000  0.4668360000000  0.5227370000000 1.0
C      1  0.5736400000000  0.5331120000000  0.4773390000000 1.0
C      1  0.4263590000000  0.5333810000000  0.5227460000000 1.0
C      1  0.4263530000000  0.4775490000000  0.4667930000000 1.0
C      1  0.4670320000000  0.4265710000000  0.4767040000000 1.0
C      1  0.4770900000000  0.4673650000000  0.4261670000000 1.0
C      1  0.5744600000000  0.4770020000000  0.5329170000000 1.0
C      1  0.4263260000000  0.5231790000000  0.5330190000000 1.0
C      1  0.5736360000000  0.5229480000000  0.4670800000000 1.0
C      1  0.5336740000000  0.4263540000000  0.5226480000000 1.0
C      1  0.4670510000000  0.5739000000000  0.5229260000000 1.0
C      1  0.5332030000000  0.5735520000000  0.4774350000000 1.0
C      1  0.5239510000000  0.4670860000000  0.5729150000000 1.0
C      1  0.4774240000000  0.5330440000000  0.5735010000000 1.0
C      1  0.5229710000000  0.5331560000000  0.4266770000000 1.0
C      1  0.5638980000000  0.5125910000000  0.5414130000000 1.0
C      1  0.5125290000000  0.5412630000000  0.5634760000000 1.0
C      1  0.5398350000000  0.5623480000000  0.5130670000000 1.0
C      1  0.4364850000000  0.5130640000000  0.4586090000000 1.0
C      1  0.4365200000000  0.4875910000000  0.5413110000000 1.0
C      1  0.5628730000000  0.4873430000000  0.4597900000000 1.0
C      1  0.4874910000000  0.5403820000000  0.4372670000000 1.0
C      1  0.4882170000000  0.4613490000000  0.5604330000000 1.0
C      1  0.5124140000000  0.4592750000000  0.4364050000000 1.0
C      1  0.4591930000000  0.5638810000000  0.4874660000000 1.0
C      1  0.4609420000000  0.4389390000000  0.5128220000000 1.0
C      1  0.5411950000000  0.4368990000000  0.4872690000000 1.0
C      1  0.5400060000000  0.5128190000000  0.5619050000000 1.0
C      1  0.5626800000000  0.5399290000000  0.5130130000000 1.0
C      1  0.5123200000000  0.5637810000000  0.5411630000000 1.0
C      1  0.4592300000000  0.5128110000000  0.4363730000000 1.0
C      1  0.5401310000000  0.4874180000000  0.4372560000000 1.0
C      1  0.4594990000000  0.4877070000000  0.5632720000000 1.0
C      1  0.4365220000000  0.5415510000000  0.4871860000000 1.0
C      1  0.5639990000000  0.4586540000000  0.4870990000000 1.0
C      1  0.4367250000000  0.4591900000000  0.5127390000000 1.0
C      1  0.4875270000000  0.5629930000000  0.4599560000000 1.0
C      1  0.5126140000000  0.4372920000000  0.4593900000000 1.0
C      1  0.4880510000000  0.4368600000000  0.5410160000000 1.0
C      1  0.5091330000000  0.4735370000000  0.5526340000000 1.0
C      1  0.4718680000000  0.5522050000000  0.5117750000000 1.0
C      1  0.5522960000000  0.5108050000000  0.4733270000000 1.0
C      1  0.4869900000000  0.4716650000000  0.4486030000000 1.0
C      1  0.4878970000000  0.5287450000000  0.5513010000000 1.0
C      1  0.5107690000000  0.5271190000000  0.4480550000000 1.0
C      1  0.5268490000000  0.5519440000000  0.4909870000000 1.0
C      1  0.5257140000000  0.4484790000000  0.5159320000000 1.0
C      1  0.4731740000000  0.4460310000000  0.4930040000000 1.0
C      1  0.4470560000000  0.5152070000000  0.5245260000000 1.0
C      1  0.4476880000000  0.4853940000000  0.4748800000000 1.0
C      1  0.5514200000000  0.4844910000000  0.5257310000000 1.0
C      1  0.5523030000000  0.4756210000000  0.5152150000000 1.0
C      1  0.5108440000000  0.5521680000000  0.4735090000000 1.0
C      1  0.4720740000000  0.5124350000000  0.5517400000000 1.0
C      1  0.4474830000000  0.4753830000000  0.4850660000000 1.0
C      1  0.5521140000000  0.5269210000000  0.4905330000000 1.0
C      1  0.4472480000000  0.5252690000000  0.5142590000000 1.0
C      1  0.4875680000000  0.5519980000000  0.5282090000000 1.0
C      1  0.5155930000000  0.4484710000000  0.5262500000000 1.0
C      1  0.4903050000000  0.4484120000000  0.4729170000000 1.0
C      1  0.5270940000000  0.5103600000000  0.4481010000000 1.0
C      1  0.4717790000000  0.4879960000000  0.4480910000000 1.0
C      1  0.5261300000000  0.4922800000000  0.5507110000000 1.0
C      1  0.5216150000000  0.5320150000000  0.4688080000000 1.0
C      1  0.5348660000000  0.4657730000000  0.5206250000000 1.0
C      1  0.4664840000000  0.5220890000000  0.5326750000000 1.0
C      1  0.4768790000000  0.5329940000000  0.5325450000000 1.0
C      1  0.4760050000000  0.4673200000000  0.4697500000000 1.0
C      1  0.5189640000000  0.4702830000000  0.5358890000000 1.0
C      1  0.4664970000000  0.5331300000000  0.5215460000000 1.0
C      1  0.5321010000000  0.5213640000000  0.4686470000000 1.0
C      1  0.5321610000000  0.4742000000000  0.5318370000000 1.0
C      1  0.4668070000000  0.4786360000000  0.4663950000000 1.0
C      1  0.5319730000000  0.5318940000000  0.4798370000000 1.0
C      1  0.4673860000000  0.4648740000000  0.4814880000000 1.0
C      1  0.4745630000000  0.4729920000000  0.5263840000000 1.0
C      1  0.5275770000000  0.4786800000000  0.4726900000000 1.0
C      1  0.4787690000000  0.5275460000000  0.4726130000000 1.0
C      1  0.5283860000000  0.5264720000000  0.5243580000000 1.0
END
