TITL C-616442-5639-174 0.0543693458101451 1000000 -3684.39746192742 0 0 520 (C1) n - 1
REM
REM in /scratch/bkarasulu/Only-C240/Try3-MINAMP_3A
REM
REM
REM
REM
REM
REM ./C.cell (f32e41d00214329c4e9f45795b8b8290)
REM
REM compiler GCC version 9.2.1 20190827 (Red Hat 9.2.1-1)
REM options -cpp -mtune=generic -march=x86-64 -g -O0 -fpre-include=/usr/include/finclude/math-vector-fortran.h
REM seed 1244342453 1514153241 -2088160531 -563557909 2092269634 431757700 1819606453 245096225 -1943032884 450812124 -1105801868 1625115472 -867504139 1545520254 -49500852 -1380672851 -1367272454 -1718067644 1022403026 555120544 574811142 1864619736 770246495 -969449396 2096960811 -248608425 350296501 -410602742 1536709586 593787144 -76672466 -871860559 1855284235
REM
CELL 1.54180  100.00000  100.00000  100.00000   90.00000   90.00000   90.00000
LATT -1
SFAC C  
C      1  0.5503630000000  0.4338690000000  0.4888520000000 1.0
C      1  0.4918630000000  0.5537630000000  0.4273940000000 1.0
C      1  0.4339320000000  0.4867910000000  0.5496410000000 1.0
C      1  0.4489180000000  0.5644370000000  0.4875070000000 1.0
C      1  0.4443700000000  0.4252590000000  0.5086970000000 1.0
C      1  0.5519340000000  0.5651200000000  0.5134890000000 1.0
C      1  0.5068410000000  0.4418920000000  0.4236440000000 1.0
C      1  0.5063330000000  0.5560240000000  0.5756870000000 1.0
C      1  0.4896350000000  0.4462570000000  0.5708050000000 1.0
C      1  0.5658150000000  0.5127070000000  0.5495490000000 1.0
C      1  0.5647770000000  0.4865310000000  0.4495140000000 1.0
C      1  0.4247710000000  0.5081110000000  0.4438140000000 1.0
C      1  0.4238480000000  0.5573820000000  0.4935760000000 1.0
C      1  0.5579320000000  0.4898070000000  0.4241800000000 1.0
C      1  0.4931310000000  0.4232420000000  0.5573650000000 1.0
C      1  0.5754500000000  0.4416950000000  0.4931700000000 1.0
C      1  0.4346670000000  0.4492330000000  0.5124640000000 1.0
C      1  0.5770450000000  0.5578390000000  0.5075900000000 1.0
C      1  0.4493550000000  0.5118050000000  0.4358330000000 1.0
C      1  0.5512370000000  0.5134490000000  0.5705410000000 1.0
C      1  0.4413600000000  0.4915420000000  0.5750760000000 1.0
C      1  0.5117870000000  0.5656770000000  0.5511890000000 1.0
C      1  0.4909480000000  0.5728080000000  0.4451520000000 1.0
C      1  0.5145840000000  0.4359710000000  0.4488220000000 1.0
C      1  0.5766910000000  0.5518520000000  0.5302290000000 1.0
C      1  0.5323300000000  0.5738150000000  0.5565940000000 1.0
C      1  0.5555710000000  0.5370010000000  0.5701220000000 1.0
C      1  0.4249020000000  0.4461280000000  0.5326480000000 1.0
C      1  0.4211800000000  0.5504450000000  0.4710590000000 1.0
C      1  0.5747020000000  0.4434140000000  0.4697990000000 1.0
C      1  0.4706390000000  0.4215750000000  0.5521800000000 1.0
C      1  0.4679850000000  0.5750030000000  0.4439490000000 1.0
C      1  0.5352670000000  0.4271620000000  0.4452740000000 1.0
C      1  0.4451200000000  0.4676440000000  0.5728450000000 1.0
C      1  0.4468860000000  0.5343700000000  0.4277910000000 1.0
C      1  0.5508470000000  0.4668150000000  0.4240190000000 1.0
C      1  0.5564300000000  0.5721130000000  0.5350040000000 1.0
C      1  0.5765550000000  0.5327490000000  0.5509720000000 1.0
C      1  0.5292540000000  0.5530230000000  0.5767480000000 1.0
C      1  0.4458200000000  0.4264830000000  0.5329480000000 1.0
C      1  0.5539340000000  0.4236570000000  0.4688600000000 1.0
C      1  0.4458770000000  0.5698190000000  0.4641720000000 1.0
C      1  0.4248600000000  0.4663800000000  0.5529420000000 1.0
C      1  0.5705980000000  0.4630950000000  0.4477220000000 1.0
C      1  0.4234300000000  0.5311460000000  0.4491170000000 1.0
C      1  0.4657350000000  0.4461180000000  0.5720810000000 1.0
C      1  0.5286920000000  0.4487260000000  0.4218150000000 1.0
C      1  0.4690680000000  0.5543350000000  0.4234400000000 1.0
C      1  0.5338180000000  0.4564990000000  0.5247060000000 1.0
C      1  0.5244110000000  0.5339750000000  0.4554530000000 1.0
C      1  0.4580650000000  0.5226750000000  0.5325410000000 1.0
C      1  0.4678830000000  0.5425370000000  0.5229220000000 1.0
C      1  0.4664480000000  0.4560770000000  0.4751980000000 1.0
C      1  0.5340020000000  0.5444040000000  0.4755510000000 1.0
C      1  0.4778610000000  0.4679950000000  0.4572810000000 1.0
C      1  0.4774700000000  0.5327120000000  0.5427720000000 1.0
C      1  0.5223210000000  0.4682620000000  0.5426910000000 1.0
C      1  0.5423630000000  0.4775990000000  0.5330680000000 1.0
C      1  0.5444230000000  0.5241240000000  0.4656660000000 1.0
C      1  0.4574140000000  0.4774530000000  0.4664930000000 1.0
C      1  0.4561260000000  0.5338710000000  0.5242200000000 1.0
C      1  0.5329760000000  0.5227810000000  0.4566440000000 1.0
C      1  0.5224640000000  0.4580780000000  0.5329880000000 1.0
C      1  0.5428220000000  0.4680790000000  0.5234260000000 1.0
C      1  0.4576140000000  0.4678340000000  0.4761770000000 1.0
C      1  0.5429600000000  0.5328690000000  0.4766870000000 1.0
C      1  0.4679900000000  0.4774560000000  0.4569290000000 1.0
C      1  0.5322020000000  0.4777400000000  0.5431100000000 1.0
C      1  0.4680000000000  0.5227850000000  0.5425740000000 1.0
C      1  0.4774550000000  0.5426290000000  0.5325680000000 1.0
C      1  0.5229120000000  0.5431750000000  0.4667950000000 1.0
C      1  0.4779170000000  0.4581150000000  0.4672430000000 1.0
C      1  0.5361740000000  0.5720310000000  0.5259460000000 1.0
C      1  0.5263150000000  0.5296260000000  0.5728560000000 1.0
C      1  0.5728920000000  0.5221690000000  0.5313280000000 1.0
C      1  0.4643510000000  0.4296340000000  0.5224580000000 1.0
C      1  0.4661530000000  0.5722290000000  0.4751680000000 1.0
C      1  0.5328910000000  0.4264990000000  0.4763490000000 1.0
C      1  0.4753190000000  0.4662290000000  0.5696800000000 1.0
C      1  0.4772870000000  0.5337270000000  0.4275330000000 1.0
C      1  0.5210760000000  0.4696010000000  0.4290220000000 1.0
C      1  0.4263120000000  0.4762920000000  0.5327820000000 1.0
C      1  0.4298430000000  0.5210700000000  0.4678900000000 1.0
C      1  0.5727430000000  0.4747370000000  0.4674800000000 1.0
C      1  0.5722720000000  0.5316900000000  0.5208580000000 1.0
C      1  0.5396950000000  0.5224330000000  0.5702270000000 1.0
C      1  0.5254140000000  0.5727890000000  0.5351630000000 1.0
C      1  0.4264070000000  0.4662830000000  0.5227130000000 1.0
C      1  0.5720410000000  0.4644790000000  0.4775500000000 1.0
C      1  0.4289900000000  0.5301200000000  0.4790790000000 1.0
C      1  0.4652430000000  0.4764730000000  0.5693950000000 1.0
C      1  0.5324320000000  0.4784640000000  0.4296680000000 1.0
C      1  0.4670610000000  0.5233740000000  0.4274980000000 1.0
C      1  0.4767000000000  0.4277590000000  0.5300050000000 1.0
C      1  0.5243520000000  0.4278150000000  0.4649910000000 1.0
C      1  0.4762240000000  0.5720120000000  0.4646600000000 1.0
C      1  0.4260370000000  0.5602010000000  0.4806560000000 1.0
C      1  0.4804880000000  0.4254990000000  0.5618550000000 1.0
C      1  0.5607210000000  0.4769890000000  0.4274820000000 1.0
C      1  0.5726660000000  0.4354250000000  0.4813290000000 1.0
C      1  0.5746010000000  0.5618960000000  0.5203740000000 1.0
C      1  0.4295340000000  0.4390150000000  0.5209750000000 1.0
C      1  0.5194820000000  0.5712640000000  0.5624220000000 1.0
C      1  0.5229230000000  0.4310090000000  0.4383830000000 1.0
C      1  0.4800910000000  0.5723140000000  0.4368880000000 1.0
C      1  0.4400140000000  0.5223340000000  0.4326910000000 1.0
C      1  0.4364870000000  0.4790100000000  0.5717920000000 1.0
C      1  0.5618650000000  0.5238080000000  0.5688570000000 1.0
C      1  0.5604780000000  0.4275360000000  0.4810020000000 1.0
C      1  0.4286900000000  0.4783030000000  0.5598560000000 1.0
C      1  0.4807740000000  0.5617550000000  0.4266740000000 1.0
C      1  0.4391830000000  0.5668310000000  0.4773810000000 1.0
C      1  0.5625520000000  0.5697350000000  0.5220510000000 1.0
C      1  0.4380460000000  0.4276170000000  0.5208420000000 1.0
C      1  0.5716440000000  0.5218490000000  0.5593060000000 1.0
C      1  0.4272110000000  0.5207720000000  0.4396870000000 1.0
C      1  0.5671350000000  0.4754670000000  0.4405520000000 1.0
C      1  0.5196510000000  0.4382100000000  0.4257000000000 1.0
C      1  0.4782290000000  0.4385180000000  0.5705110000000 1.0
C      1  0.5185120000000  0.5618820000000  0.5741170000000 1.0
C      1  0.4963620000000  0.4759560000000  0.4350440000000 1.0
C      1  0.4354960000000  0.4961010000000  0.4756390000000 1.0
C      1  0.4765260000000  0.4350030000000  0.4963460000000 1.0
C      1  0.5029400000000  0.5244850000000  0.4346380000000 1.0
C      1  0.5018130000000  0.4750760000000  0.5647700000000 1.0
C      1  0.4957170000000  0.5236390000000  0.5645020000000 1.0
C      1  0.5649870000000  0.5028070000000  0.4764180000000 1.0
C      1  0.5645390000000  0.4965760000000  0.5242210000000 1.0
C      1  0.4352280000000  0.5022640000000  0.5235560000000 1.0
C      1  0.5245070000000  0.5650000000000  0.4976460000000 1.0
C      1  0.5247620000000  0.4352050000000  0.5035100000000 1.0
C      1  0.4766180000000  0.5648740000000  0.5028900000000 1.0
C      1  0.4756560000000  0.4963020000000  0.4349550000000 1.0
C      1  0.4988690000000  0.4354480000000  0.4761050000000 1.0
C      1  0.4352910000000  0.4760270000000  0.4969190000000 1.0
C      1  0.5236610000000  0.5021080000000  0.4349110000000 1.0
C      1  0.4743950000000  0.5024200000000  0.5648300000000 1.0
C      1  0.5228200000000  0.4966730000000  0.5646420000000 1.0
C      1  0.5023880000000  0.5652400000000  0.4761390000000 1.0
C      1  0.4969100000000  0.5648600000000  0.5242320000000 1.0
C      1  0.5030750000000  0.4352380000000  0.5242380000000 1.0
C      1  0.5652680000000  0.5236680000000  0.4973080000000 1.0
C      1  0.4351590000000  0.5242370000000  0.5037260000000 1.0
C      1  0.5653550000000  0.4757690000000  0.5034270000000 1.0
C      1  0.4313150000000  0.4999330000000  0.5099530000000 1.0
C      1  0.5112630000000  0.4312740000000  0.5005490000000 1.0
C      1  0.4997500000000  0.5105150000000  0.4315540000000 1.0
C      1  0.5689840000000  0.4996710000000  0.5109030000000 1.0
C      1  0.5688670000000  0.4999800000000  0.4900160000000 1.0
C      1  0.4319710000000  0.5000440000000  0.4891410000000 1.0
C      1  0.4900680000000  0.5688050000000  0.5004340000000 1.0
C      1  0.4903280000000  0.4318060000000  0.4996560000000 1.0
C      1  0.5108400000000  0.5685530000000  0.5002940000000 1.0
C      1  0.4992470000000  0.4895610000000  0.4312740000000 1.0
C      1  0.4982910000000  0.5097710000000  0.5677440000000 1.0
C      1  0.4986760000000  0.4888020000000  0.5682800000000 1.0
C      1  0.5005790000000  0.4314410000000  0.5105500000000 1.0
C      1  0.4316900000000  0.5105860000000  0.4999750000000 1.0
C      1  0.5098080000000  0.4998710000000  0.4318950000000 1.0
C      1  0.5002960000000  0.5689020000000  0.5108290000000 1.0
C      1  0.5004380000000  0.5684040000000  0.4900000000000 1.0
C      1  0.5011600000000  0.4315910000000  0.4897570000000 1.0
C      1  0.5688200000000  0.4894580000000  0.5004680000000 1.0
C      1  0.4315280000000  0.4896910000000  0.4994860000000 1.0
C      1  0.5688960000000  0.5101590000000  0.5005130000000 1.0
C      1  0.4889940000000  0.4999220000000  0.4306630000000 1.0
C      1  0.5089270000000  0.4991520000000  0.5677180000000 1.0
C      1  0.4880570000000  0.4993920000000  0.5684330000000 1.0
C      1  0.5283920000000  0.4915120000000  0.5402690000000 1.0
C      1  0.5404290000000  0.5292820000000  0.4903310000000 1.0
C      1  0.4913310000000  0.5401880000000  0.5284780000000 1.0
C      1  0.4714650000000  0.5088990000000  0.5399390000000 1.0
C      1  0.4718990000000  0.4912590000000  0.4597280000000 1.0
C      1  0.5293400000000  0.5091780000000  0.4593780000000 1.0
C      1  0.4601010000000  0.4710700000000  0.4900840000000 1.0
C      1  0.4593730000000  0.5294610000000  0.5091070000000 1.0
C      1  0.5403420000000  0.4711130000000  0.5094480000000 1.0
C      1  0.5087930000000  0.4600860000000  0.5286110000000 1.0
C      1  0.5091570000000  0.5406280000000  0.4703730000000 1.0
C      1  0.4916920000000  0.4600950000000  0.4713670000000 1.0
C      1  0.4913140000000  0.5289010000000  0.5401410000000 1.0
C      1  0.5296480000000  0.5409900000000  0.4906140000000 1.0
C      1  0.5398070000000  0.4912890000000  0.5287400000000 1.0
C      1  0.5084120000000  0.4716080000000  0.5400550000000 1.0
C      1  0.4917390000000  0.4715630000000  0.4597970000000 1.0
C      1  0.5093980000000  0.5296530000000  0.4587900000000 1.0
C      1  0.4708210000000  0.4593110000000  0.4901540000000 1.0
C      1  0.5294540000000  0.4595940000000  0.5095990000000 1.0
C      1  0.4711250000000  0.5401830000000  0.5089790000000 1.0
C      1  0.4600980000000  0.5090740000000  0.5282630000000 1.0
C      1  0.5408810000000  0.5091560000000  0.4703740000000 1.0
C      1  0.4600370000000  0.4912600000000  0.4706820000000 1.0
C      1  0.4337640000000  0.4532590000000  0.4876210000000 1.0
C      1  0.4889440000000  0.4348670000000  0.4536130000000 1.0
C      1  0.4529090000000  0.4865120000000  0.4342540000000 1.0
C      1  0.5697320000000  0.5456420000000  0.4869040000000 1.0
C      1  0.5691240000000  0.4540000000000  0.5144570000000 1.0
C      1  0.4327860000000  0.5467210000000  0.5151700000000 1.0
C      1  0.5134330000000  0.5685460000000  0.4540890000000 1.0
C      1  0.5138230000000  0.4327720000000  0.5469480000000 1.0
C      1  0.4865090000000  0.5660020000000  0.5464120000000 1.0
C      1  0.5462070000000  0.5117350000000  0.4303560000000 1.0
C      1  0.5454590000000  0.4874670000000  0.5682000000000 1.0
C      1  0.4521730000000  0.5134870000000  0.5670980000000 1.0
C      1  0.4540730000000  0.4325650000000  0.4855810000000 1.0
C      1  0.4309970000000  0.4853770000000  0.4537670000000 1.0
C      1  0.4859170000000  0.4534040000000  0.4328040000000 1.0
C      1  0.5473340000000  0.5648580000000  0.4875230000000 1.0
C      1  0.4539650000000  0.5664650000000  0.5124900000000 1.0
C      1  0.5470070000000  0.4352840000000  0.5142090000000 1.0
C      1  0.5652030000000  0.5119390000000  0.4529370000000 1.0
C      1  0.4339550000000  0.5117960000000  0.5461050000000 1.0
C      1  0.5658100000000  0.4878210000000  0.5470120000000 1.0
C      1  0.5149050000000  0.5470360000000  0.4335570000000 1.0
C      1  0.4847930000000  0.5458880000000  0.5678460000000 1.0
C      1  0.5134000000000  0.4531430000000  0.5661740000000 1.0
C      1  0.4747300000000  0.5632980000000  0.5534830000000 1.0
C      1  0.5528450000000  0.4761530000000  0.5644820000000 1.0
C      1  0.5638580000000  0.5494230000000  0.4747660000000 1.0
C      1  0.5261610000000  0.4384530000000  0.5511740000000 1.0
C      1  0.5259040000000  0.5632320000000  0.4502390000000 1.0
C      1  0.4757190000000  0.4384590000000  0.4488700000000 1.0
C      1  0.4477880000000  0.5258440000000  0.5613470000000 1.0
C      1  0.4458040000000  0.4746680000000  0.4369820000000 1.0
C      1  0.5502120000000  0.5239640000000  0.4361230000000 1.0
C      1  0.4375860000000  0.4485880000000  0.4747860000000 1.0
C      1  0.4399670000000  0.5522270000000  0.5261100000000 1.0
C      1  0.5637570000000  0.4499620000000  0.5268730000000 1.0
C      1  0.5630290000000  0.4764190000000  0.5543660000000 1.0
C      1  0.4737570000000  0.5532920000000  0.5637540000000 1.0
C      1  0.5531760000000  0.5587890000000  0.4756990000000 1.0
C      1  0.4377870000000  0.5247440000000  0.5509950000000 1.0
C      1  0.5594090000000  0.5236790000000  0.4469710000000 1.0
C      1  0.4353640000000  0.4741220000000  0.4468680000000 1.0
C      1  0.5261990000000  0.4489060000000  0.5612460000000 1.0
C      1  0.4738510000000  0.4486440000000  0.4386510000000 1.0
C      1  0.5261310000000  0.5526510000000  0.4406390000000 1.0
C      1  0.4483470000000  0.4393650000000  0.4744200000000 1.0
C      1  0.5528730000000  0.4411660000000  0.5259070000000 1.0
C      1  0.4493970000000  0.5627820000000  0.5254170000000 1.0
C      1  0.4328110000000  0.4971420000000  0.4454170000000 1.0
C      1  0.4457060000000  0.4331630000000  0.4975050000000 1.0
C      1  0.4975300000000  0.4449450000000  0.4333220000000 1.0
C      1  0.5625810000000  0.5000430000000  0.4452680000000 1.0
C      1  0.5616640000000  0.4997210000000  0.5538830000000 1.0
C      1  0.4369540000000  0.5001660000000  0.5533630000000 1.0
C      1  0.5549800000000  0.5624390000000  0.4994770000000 1.0
C      1  0.5541700000000  0.4375090000000  0.5022430000000 1.0
C      1  0.4457480000000  0.5626550000000  0.5014440000000 1.0
C      1  0.5035510000000  0.5555570000000  0.4341700000000 1.0
C      1  0.5020200000000  0.4445070000000  0.5651880000000 1.0
C      1  0.4964430000000  0.5542930000000  0.5665690000000 1.0
C      1  0.5004970000000  0.4383030000000  0.4460670000000 1.0
C      1  0.4378090000000  0.4457510000000  0.4989670000000 1.0
C      1  0.4455250000000  0.4982310000000  0.4381260000000 1.0
C      1  0.5029410000000  0.5665570000000  0.4447200000000 1.0
C      1  0.4981590000000  0.5622690000000  0.5539050000000 1.0
C      1  0.5031090000000  0.4326930000000  0.5561640000000 1.0
C      1  0.5681560000000  0.5552950000000  0.4975010000000 1.0
C      1  0.4330980000000  0.5554320000000  0.5037150000000 1.0
C      1  0.5671970000000  0.4446660000000  0.5036250000000 1.0
C      1  0.5555410000000  0.5008770000000  0.4322220000000 1.0
C      1  0.4436940000000  0.5019430000000  0.5663090000000 1.0
C      1  0.5526550000000  0.4998530000000  0.5653130000000 1.0
C      1  0.5327490000000  0.4535520000000  0.4347090000000 1.0
C      1  0.4358070000000  0.5383660000000  0.4539640000000 1.0
C      1  0.4490050000000  0.4414340000000  0.5371550000000 1.0
C      1  0.4637090000000  0.5506450000000  0.4372820000000 1.0
C      1  0.4593540000000  0.4520150000000  0.5587100000000 1.0
C      1  0.5308650000000  0.5502350000000  0.5631470000000 1.0
C      1  0.5615000000000  0.4527130000000  0.4512740000000 1.0
C      1  0.5627220000000  0.5369470000000  0.5458260000000 1.0
C      1  0.4387610000000  0.4627540000000  0.5475200000000 1.0
C      1  0.5525360000000  0.5574830000000  0.5372320000000 1.0
C      1  0.5494160000000  0.4378740000000  0.4649870000000 1.0
C      1  0.4491490000000  0.5607930000000  0.4533540000000 1.0
C      1  0.4499700000000  0.5454050000000  0.4360260000000 1.0
C      1  0.5412320000000  0.4396530000000  0.4523890000000 1.0
C      1  0.4386250000000  0.4519750000000  0.5366710000000 1.0
C      1  0.5451920000000  0.4606410000000  0.4366580000000 1.0
C      1  0.4492680000000  0.4632430000000  0.5585010000000 1.0
C      1  0.5518490000000  0.5403320000000  0.5554380000000 1.0
C      1  0.4631230000000  0.5610150000000  0.4479700000000 1.0
C      1  0.5344480000000  0.5592970000000  0.5528830000000 1.0
C      1  0.4685820000000  0.4348820000000  0.5480940000000 1.0
C      1  0.5628380000000  0.5472030000000  0.5346920000000 1.0
C      1  0.4339230000000  0.5459600000000  0.4661900000000 1.0
C      1  0.5606470000000  0.4477000000000  0.4649530000000 1.0
C      1  0.4882170000000  0.4309040000000  0.4675400000000 1.0
C      1  0.4670000000000  0.4848220000000  0.4314190000000 1.0
C      1  0.4305790000000  0.4672460000000  0.4865160000000 1.0
C      1  0.5134630000000  0.5706870000000  0.4685120000000 1.0
C      1  0.5137910000000  0.4301610000000  0.5325800000000 1.0
C      1  0.4851860000000  0.5689190000000  0.5323740000000 1.0
C      1  0.5316350000000  0.5123230000000  0.4285350000000 1.0
C      1  0.5311690000000  0.4852250000000  0.5694880000000 1.0
C      1  0.4663240000000  0.5137890000000  0.5695400000000 1.0
C      1  0.5715310000000  0.5311340000000  0.4866500000000 1.0
C      1  0.5706380000000  0.4682800000000  0.5148460000000 1.0
C      1  0.4305530000000  0.5321640000000  0.5154690000000 1.0
C      1  0.4303610000000  0.4842130000000  0.4680680000000 1.0
C      1  0.4852350000000  0.4675890000000  0.4304170000000 1.0
C      1  0.4686720000000  0.4304260000000  0.4845460000000 1.0
C      1  0.5690330000000  0.5135180000000  0.4673760000000 1.0
C      1  0.4304190000000  0.5126190000000  0.5321350000000 1.0
C      1  0.5687370000000  0.4857720000000  0.5330590000000 1.0
C      1  0.5149050000000  0.5324130000000  0.4304210000000 1.0
C      1  0.4838740000000  0.5316710000000  0.5690380000000 1.0
C      1  0.5134440000000  0.4672270000000  0.5691670000000 1.0
C      1  0.5330160000000  0.5688720000000  0.4862060000000 1.0
C      1  0.4680680000000  0.5694210000000  0.5135450000000 1.0
C      1  0.5329040000000  0.4316340000000  0.5152350000000 1.0
C      1  0.4550220000000  0.5235170000000  0.4648970000000 1.0
C      1  0.4645480000000  0.4551910000000  0.5227210000000 1.0
C      1  0.5236180000000  0.4654700000000  0.4550800000000 1.0
C      1  0.5462680000000  0.4767540000000  0.4660400000000 1.0
C      1  0.5461030000000  0.5227310000000  0.5331700000000 1.0
C      1  0.4535170000000  0.4771920000000  0.5332010000000 1.0
C      1  0.5351420000000  0.5456370000000  0.5231480000000 1.0
C      1  0.5351000000000  0.4541140000000  0.4772800000000 1.0
C      1  0.4650780000000  0.5459840000000  0.4768870000000 1.0
C      1  0.4758190000000  0.5348470000000  0.4536410000000 1.0
C      1  0.4756450000000  0.4653290000000  0.5440430000000 1.0
C      1  0.5235800000000  0.5346810000000  0.5441460000000 1.0
C      1  0.5240630000000  0.4544600000000  0.4657260000000 1.0
C      1  0.4537310000000  0.4660080000000  0.5222410000000 1.0
C      1  0.4655890000000  0.5227720000000  0.4538170000000 1.0
C      1  0.4755050000000  0.5458970000000  0.4647250000000 1.0
C      1  0.5233170000000  0.5462090000000  0.5343430000000 1.0
C      1  0.4762590000000  0.4543790000000  0.5335170000000 1.0
C      1  0.5459640000000  0.5343560000000  0.5222130000000 1.0
C      1  0.4545830000000  0.5348760000000  0.4767220000000 1.0
C      1  0.5461820000000  0.4648900000000  0.4768160000000 1.0
C      1  0.5354210000000  0.4766310000000  0.4551990000000 1.0
C      1  0.4642210000000  0.4768420000000  0.5438040000000 1.0
C      1  0.5352640000000  0.5240100000000  0.5432800000000 1.0
C      1  0.4710190000000  0.5072340000000  0.5174390000000 1.0
C      1  0.5183170000000  0.4706380000000  0.5073480000000 1.0
C      1  0.5075900000000  0.5184860000000  0.4699500000000 1.0
C      1  0.5289060000000  0.4929730000000  0.5177290000000 1.0
C      1  0.5296220000000  0.5076410000000  0.4815490000000 1.0
C      1  0.4709890000000  0.4931130000000  0.4818830000000 1.0
C      1  0.4822430000000  0.5292040000000  0.5067460000000 1.0
C      1  0.4820860000000  0.4704120000000  0.4923030000000 1.0
C      1  0.5182560000000  0.5300590000000  0.4922170000000 1.0
C      1  0.4934280000000  0.4825190000000  0.4709280000000 1.0
C      1  0.4930760000000  0.5178850000000  0.5290150000000 1.0
C      1  0.5067020000000  0.4824220000000  0.5289780000000 1.0
C      1  0.5070740000000  0.4709790000000  0.5176180000000 1.0
C      1  0.4705480000000  0.5182400000000  0.5069770000000 1.0
C      1  0.5181690000000  0.5074200000000  0.4702630000000 1.0
C      1  0.4930120000000  0.5292330000000  0.5174840000000 1.0
C      1  0.5072870000000  0.5298770000000  0.4816030000000 1.0
C      1  0.4934050000000  0.4709760000000  0.4821740000000 1.0
C      1  0.5293780000000  0.4822520000000  0.5071570000000 1.0
C      1  0.4710240000000  0.4821730000000  0.4923950000000 1.0
C      1  0.5293310000000  0.5182700000000  0.4922740000000 1.0
C      1  0.4826520000000  0.4932560000000  0.4708830000000 1.0
C      1  0.5175140000000  0.4932250000000  0.5291630000000 1.0
C      1  0.4823900000000  0.5070440000000  0.5289250000000 1.0
C      1  0.5343530000000  0.5647690000000  0.4615150000000 1.0
C      1  0.4583940000000  0.5355640000000  0.5637100000000 1.0
C      1  0.5652520000000  0.4605430000000  0.5366950000000 1.0
C      1  0.4671260000000  0.4357230000000  0.4599730000000 1.0
C      1  0.4613740000000  0.5604200000000  0.5486590000000 1.0
C      1  0.5345840000000  0.4365670000000  0.5398820000000 1.0
C      1  0.5491270000000  0.4625060000000  0.5607150000000 1.0
C      1  0.5391200000000  0.5328650000000  0.4350680000000 1.0
C      1  0.4502380000000  0.4611330000000  0.4404080000000 1.0
C      1  0.4451500000000  0.5418450000000  0.5339400000000 1.0
C      1  0.4350160000000  0.4588400000000  0.4649250000000 1.0
C      1  0.5650350000000  0.5381490000000  0.4659840000000 1.0
C      1  0.5556700000000  0.5323660000000  0.4573310000000 1.0
C      1  0.5355160000000  0.4596990000000  0.5643600000000 1.0
C      1  0.4596440000000  0.5651400000000  0.5352000000000 1.0
C      1  0.4392590000000  0.4608900000000  0.4513240000000 1.0
C      1  0.5602430000000  0.4628470000000  0.5499740000000 1.0
C      1  0.4357430000000  0.5334250000000  0.5398420000000 1.0
C      1  0.4604340000000  0.5493290000000  0.5596400000000 1.0
C      1  0.5338960000000  0.5417550000000  0.4446660000000 1.0
C      1  0.4638480000000  0.4590440000000  0.4362220000000 1.0
C      1  0.5425170000000  0.4460820000000  0.5338900000000 1.0
C      1  0.4584940000000  0.4446850000000  0.4662340000000 1.0
C      1  0.5426670000000  0.5551780000000  0.4672300000000 1.0
C      1  0.5188910000000  0.5085360000000  0.5293770000000 1.0
C      1  0.5296220000000  0.5188540000000  0.5074940000000 1.0
C      1  0.5083380000000  0.5299930000000  0.5182960000000 1.0
C      1  0.4810060000000  0.4917670000000  0.5292440000000 1.0
C      1  0.4816820000000  0.5085620000000  0.4701680000000 1.0
C      1  0.5192800000000  0.4920570000000  0.4702440000000 1.0
C      1  0.4704580000000  0.4812900000000  0.5075860000000 1.0
C      1  0.4700990000000  0.5190640000000  0.4916170000000 1.0
C      1  0.5301300000000  0.4814410000000  0.4919730000000 1.0
C      1  0.4917000000000  0.4702020000000  0.5181370000000 1.0
C      1  0.4919070000000  0.5301160000000  0.4806960000000 1.0
C      1  0.5088380000000  0.4706320000000  0.4813840000000 1.0
C      1  0.5083330000000  0.5191030000000  0.5294200000000 1.0
C      1  0.5189970000000  0.5300170000000  0.5076770000000 1.0
C      1  0.5295480000000  0.5082280000000  0.5181480000000 1.0
C      1  0.4914170000000  0.4810830000000  0.5292500000000 1.0
C      1  0.5086520000000  0.4815760000000  0.4703750000000 1.0
C      1  0.4921510000000  0.5193620000000  0.4697950000000 1.0
C      1  0.4810740000000  0.4701290000000  0.5075710000000 1.0
C      1  0.5193640000000  0.4704250000000  0.4920080000000 1.0
C      1  0.4813730000000  0.5298270000000  0.4914470000000 1.0
C      1  0.4703960000000  0.4919140000000  0.5181180000000 1.0
C      1  0.5300140000000  0.4921900000000  0.4813450000000 1.0
C      1  0.4702710000000  0.5084720000000  0.4809480000000 1.0
C      1  0.4757170000000  0.4872780000000  0.5434210000000 1.0
C      1  0.5445550000000  0.4763090000000  0.4877070000000 1.0
C      1  0.4869520000000  0.5443220000000  0.4756650000000 1.0
C      1  0.5240350000000  0.5131240000000  0.5436550000000 1.0
C      1  0.5242400000000  0.4874100000000  0.4562040000000 1.0
C      1  0.4772330000000  0.5126910000000  0.4558840000000 1.0
C      1  0.4559420000000  0.5237130000000  0.4873540000000 1.0
C      1  0.4561090000000  0.4768400000000  0.5116520000000 1.0
C      1  0.5439190000000  0.5233370000000  0.5116230000000 1.0
C      1  0.5134190000000  0.4563790000000  0.4767940000000 1.0
C      1  0.5128730000000  0.5443960000000  0.5230910000000 1.0
C      1  0.4871650000000  0.4559620000000  0.5226810000000 1.0
C      1  0.4865730000000  0.4762420000000  0.5434390000000 1.0
C      1  0.4767410000000  0.5439500000000  0.4870760000000 1.0
C      1  0.5440360000000  0.4873850000000  0.4770980000000 1.0
C      1  0.5127360000000  0.5239150000000  0.5437500000000 1.0
C      1  0.4873440000000  0.5241380000000  0.4555240000000 1.0
C      1  0.5129560000000  0.4767250000000  0.4561320000000 1.0
C      1  0.5240190000000  0.4562200000000  0.4877620000000 1.0
C      1  0.4760140000000  0.4560580000000  0.5119510000000 1.0
C      1  0.5239240000000  0.5440590000000  0.5125210000000 1.0
C      1  0.4559670000000  0.5127050000000  0.4760860000000 1.0
C      1  0.5439510000000  0.5122720000000  0.5223010000000 1.0
C      1  0.4559390000000  0.4876890000000  0.5223070000000 1.0
C      1  0.4780160000000  0.4400260000000  0.5382570000000 1.0
C      1  0.5404700000000  0.4750740000000  0.4415660000000 1.0
C      1  0.4404770000000  0.5392610000000  0.4776210000000 1.0
C      1  0.5224540000000  0.5598410000000  0.5418490000000 1.0
C      1  0.5245820000000  0.4412280000000  0.4587280000000 1.0
C      1  0.4749610000000  0.5588080000000  0.4580330000000 1.0
C      1  0.4614870000000  0.5183700000000  0.4397410000000 1.0
C      1  0.4577680000000  0.4759340000000  0.5567700000000 1.0
C      1  0.5405110000000  0.5295140000000  0.5561580000000 1.0
C      1  0.5588860000000  0.4581010000000  0.4762300000000 1.0
C      1  0.5597400000000  0.5394850000000  0.5220830000000 1.0
C      1  0.4397150000000  0.4595200000000  0.5220600000000 1.0
C      1  0.4395170000000  0.4771630000000  0.5396630000000 1.0
C      1  0.4755850000000  0.5408890000000  0.4404100000000 1.0
C      1  0.5407620000000  0.4394310000000  0.4784360000000 1.0
C      1  0.5603220000000  0.5222760000000  0.5393930000000 1.0
C      1  0.4414820000000  0.5245500000000  0.4596290000000 1.0
C      1  0.5608310000000  0.4808080000000  0.4621090000000 1.0
C      1  0.5218150000000  0.4609200000000  0.4409350000000 1.0
C      1  0.4739230000000  0.4591950000000  0.5570120000000 1.0
C      1  0.5274470000000  0.5371330000000  0.5591720000000 1.0
C      1  0.4610450000000  0.5601740000000  0.4809750000000 1.0
C      1  0.5425280000000  0.5588200000000  0.5236730000000 1.0
C      1  0.4578850000000  0.4424820000000  0.5242910000000 1.0
C      1  0.4173970000000  0.4580010000000  0.5306920000000 1.0
C      1  0.5327770000000  0.4191950000000  0.4570050000000 1.0
C      1  0.4587850000000  0.5321340000000  0.4197350000000 1.0
C      1  0.5829300000000  0.5394080000000  0.5281970000000 1.0
C      1  0.5812170000000  0.4557780000000  0.4698370000000 1.0
C      1  0.4171600000000  0.5369630000000  0.4724660000000 1.0
C      1  0.4681060000000  0.5812670000000  0.4564400000000 1.0
C      1  0.4698930000000  0.4172310000000  0.5387880000000 1.0
C      1  0.5335270000000  0.5809170000000  0.5444260000000 1.0
C      1  0.5385270000000  0.4708140000000  0.4179880000000 1.0
C      1  0.5444740000000  0.5344790000000  0.5783910000000 1.0
C      1  0.4576360000000  0.4686420000000  0.5792960000000 1.0
C      1  0.4578650000000  0.4194710000000  0.5309440000000 1.0
C      1  0.4177780000000  0.5276600000000  0.4618020000000 1.0
C      1  0.5274000000000  0.4621080000000  0.4174510000000 1.0
C      1  0.5445730000000  0.5798610000000  0.5349620000000 1.0
C      1  0.4573450000000  0.5787370000000  0.4658190000000 1.0
C      1  0.5414080000000  0.4173060000000  0.4685770000000 1.0
C      1  0.5794490000000  0.4650480000000  0.4591140000000 1.0
C      1  0.4174420000000  0.4682030000000  0.5409730000000 1.0
C      1  0.5830470000000  0.5299200000000  0.5386170000000 1.0
C      1  0.4696210000000  0.5416210000000  0.4176720000000 1.0
C      1  0.5321750000000  0.5399420000000  0.5818260000000 1.0
C      1  0.4673120000000  0.4584030000000  0.5794050000000 1.0
C      1  0.5506410000000  0.4999420000000  0.5254280000000 1.0
C      1  0.5268760000000  0.5511230000000  0.5004250000000 1.0
C      1  0.5005810000000  0.5272790000000  0.5512370000000 1.0
C      1  0.4493560000000  0.5000050000000  0.5251530000000 1.0
C      1  0.4489500000000  0.5003440000000  0.4725510000000 1.0
C      1  0.5510410000000  0.4995670000000  0.4738650000000 1.0
C      1  0.4731130000000  0.4487160000000  0.4997300000000 1.0
C      1  0.4740230000000  0.5508630000000  0.4995290000000 1.0
C      1  0.5268230000000  0.4491780000000  0.5001160000000 1.0
C      1  0.4987300000000  0.4729290000000  0.5507250000000 1.0
C      1  0.4995690000000  0.5275650000000  0.4483640000000 1.0
C      1  0.5009180000000  0.4730720000000  0.4486490000000 1.0
C      1  0.5004120000000  0.5510370000000  0.5260590000000 1.0
C      1  0.5512040000000  0.5262650000000  0.4996170000000 1.0
C      1  0.5265510000000  0.5009230000000  0.5511120000000 1.0
C      1  0.4994280000000  0.4491360000000  0.5265470000000 1.0
C      1  0.5012020000000  0.4495440000000  0.4741020000000 1.0
C      1  0.4992820000000  0.5513590000000  0.4726290000000 1.0
C      1  0.4493680000000  0.4741110000000  0.4993230000000 1.0
C      1  0.5514170000000  0.4732300000000  0.5001160000000 1.0
C      1  0.4486840000000  0.5274870000000  0.4995350000000 1.0
C      1  0.4727180000000  0.4994510000000  0.5507540000000 1.0
C      1  0.5270100000000  0.4994250000000  0.4487760000000 1.0
C      1  0.4744680000000  0.5001870000000  0.4489340000000 1.0
C      1  0.4299830000000  0.4706000000000  0.4726240000000 1.0
C      1  0.5709130000000  0.5269850000000  0.4727890000000 1.0
C      1  0.5701280000000  0.4721650000000  0.5288450000000 1.0
C      1  0.4297540000000  0.5264530000000  0.5286710000000 1.0
C      1  0.4715670000000  0.5700370000000  0.5276170000000 1.0
C      1  0.5278910000000  0.5262460000000  0.4290790000000 1.0
C      1  0.5272110000000  0.4712940000000  0.5696730000000 1.0
C      1  0.4701110000000  0.5275380000000  0.5692680000000 1.0
C      1  0.5272870000000  0.5704020000000  0.4728450000000 1.0
C      1  0.5276040000000  0.4304050000000  0.5286370000000 1.0
C      1  0.4743630000000  0.4298660000000  0.4711690000000 1.0
C      1  0.4713030000000  0.4709630000000  0.4306480000000 1.0
C      1  0.5498150000000  0.4492180000000  0.4445030000000 1.0
C      1  0.4427570000000  0.5494520000000  0.4474180000000 1.0
C      1  0.4566180000000  0.4418550000000  0.5491350000000 1.0
C      1  0.5468250000000  0.5530060000000  0.5496250000000 1.0
END
