TITL C-616442-5639-134 -18.02089234041 1000000 -3726.98400704153 0 0 520 (C1) n - 1
REM
REM in /scratch/bkarasulu/Only-C240/Try3-MINAMP_3A
REM
REM
REM
REM
REM
REM ./C.cell (f32e41d00214329c4e9f45795b8b8290)
REM
REM compiler GCC version 9.2.1 20190827 (Red Hat 9.2.1-1)
REM options -cpp -mtune=generic -march=x86-64 -g -O0 -fpre-include=/usr/include/finclude/math-vector-fortran.h
REM seed -2102118104 -1122961090 2138602784 -693863235 -81801739 255378532 8556922 -669554481 2117153180 1391061307 588661388 2012299228 946014620 1886014107 -806815049 244642746 -1849287751 -1925712595 -2039708359 -609045675 -186914574 -1062258917 1462382528 -1260791901 1957275603 -336455373 -2059748233 97189834 1618283012 1994340771 538003223 -621205387 -2005900563
REM
CELL 1.54180  100.00000  100.00000  100.00000   90.00000   90.00000   90.00000
LATT -1
SFAC C  
C      1  0.5085050000000  0.5794620000000  0.4719080000000 1.0
C      1  0.5889510000000  0.4654730000000  0.5069240000000 1.0
C      1  0.4690430000000  0.5086190000000  0.5781010000000 1.0
C      1  0.4824460000000  0.5774620000000  0.5398840000000 1.0
C      1  0.4917730000000  0.4218510000000  0.4722840000000 1.0
C      1  0.5128760000000  0.4277130000000  0.5352570000000 1.0
C      1  0.4233080000000  0.4639790000000  0.4837730000000 1.0
C      1  0.4209310000000  0.5379840000000  0.5120350000000 1.0
C      1  0.5709380000000  0.5333090000000  0.4867350000000 1.0
C      1  0.5371780000000  0.5125500000000  0.4207170000000 1.0
C      1  0.5317520000000  0.4909080000000  0.5776070000000 1.0
C      1  0.4623180000000  0.4865740000000  0.4222200000000 1.0
C      1  0.4592980000000  0.5783060000000  0.5154550000000 1.0
C      1  0.5080450000000  0.4687120000000  0.5784290000000 1.0
C      1  0.5773420000000  0.5141530000000  0.4595180000000 1.0
C      1  0.5284870000000  0.5790020000000  0.4927860000000 1.0
C      1  0.4668720000000  0.4128480000000  0.4915480000000 1.0
C      1  0.5403790000000  0.4214380000000  0.5160500000000 1.0
C      1  0.4878080000000  0.4666330000000  0.4283760000000 1.0
C      1  0.5128090000000  0.5333380000000  0.4281860000000 1.0
C      1  0.4914210000000  0.5294430000000  0.5783990000000 1.0
C      1  0.4225380000000  0.5161990000000  0.5356990000000 1.0
C      1  0.5766670000000  0.4905230000000  0.5283240000000 1.0
C      1  0.4223320000000  0.4880310000000  0.4615850000000 1.0
C      1  0.5058150000000  0.4187180000000  0.5172700000000 1.0
C      1  0.4204990000000  0.5145960000000  0.5013900000000 1.0
C      1  0.5134620000000  0.5026090000000  0.4207170000000 1.0
C      1  0.5007870000000  0.4178460000000  0.4904360000000 1.0
C      1  0.4931000000000  0.5807970000000  0.5177900000000 1.0
C      1  0.4991980000000  0.5828710000000  0.4906490000000 1.0
C      1  0.5800170000000  0.5151920000000  0.4941750000000 1.0
C      1  0.5812320000000  0.4883670000000  0.4990060000000 1.0
C      1  0.4214610000000  0.4872350000000  0.4959320000000 1.0
C      1  0.4877600000000  0.5009260000000  0.5832910000000 1.0
C      1  0.4863900000000  0.4966330000000  0.4211990000000 1.0
C      1  0.5142170000000  0.4968710000000  0.5840870000000 1.0
C      1  0.5170140000000  0.4196560000000  0.5067460000000 1.0
C      1  0.5030270000000  0.5138580000000  0.4205430000000 1.0
C      1  0.4211620000000  0.5037070000000  0.5124330000000 1.0
C      1  0.4894960000000  0.4193410000000  0.5009340000000 1.0
C      1  0.5096900000000  0.5825780000000  0.5015690000000 1.0
C      1  0.4824780000000  0.5810380000000  0.5066460000000 1.0
C      1  0.4987920000000  0.5116090000000  0.5831710000000 1.0
C      1  0.5035380000000  0.4860230000000  0.5846850000000 1.0
C      1  0.4969590000000  0.4854630000000  0.4202510000000 1.0
C      1  0.5795730000000  0.5043770000000  0.4831240000000 1.0
C      1  0.4209050000000  0.4983380000000  0.4850870000000 1.0
C      1  0.5808610000000  0.4992090000000  0.5100220000000 1.0
C      1  0.4415750000000  0.4886670000000  0.4309470000000 1.0
C      1  0.4838220000000  0.4355560000000  0.4471480000000 1.0
C      1  0.4348130000000  0.4443230000000  0.4843550000000 1.0
C      1  0.5550870000000  0.4833610000000  0.5641630000000 1.0
C      1  0.5574250000000  0.5114560000000  0.4304280000000 1.0
C      1  0.4450520000000  0.5158930000000  0.5634530000000 1.0
C      1  0.5142660000000  0.4359220000000  0.5566010000000 1.0
C      1  0.5165960000000  0.5649650000000  0.4464930000000 1.0
C      1  0.4835050000000  0.5650750000000  0.5581940000000 1.0
C      1  0.5686870000000  0.4433300000000  0.5135540000000 1.0
C      1  0.5625550000000  0.5546450000000  0.4849920000000 1.0
C      1  0.4307930000000  0.5582910000000  0.5117810000000 1.0
C      1  0.4327020000000  0.4890370000000  0.4414890000000 1.0
C      1  0.4467220000000  0.4368550000000  0.4843880000000 1.0
C      1  0.4846820000000  0.4452120000000  0.4371910000000 1.0
C      1  0.5646210000000  0.4833670000000  0.5537570000000 1.0
C      1  0.4333380000000  0.5157500000000  0.5556750000000 1.0
C      1  0.5680900000000  0.5120840000000  0.4390990000000 1.0
C      1  0.5603040000000  0.4321010000000  0.5138400000000 1.0
C      1  0.4392700000000  0.5690330000000  0.5126740000000 1.0
C      1  0.5530250000000  0.5647240000000  0.4843790000000 1.0
C      1  0.5148170000000  0.4454740000000  0.5665710000000 1.0
C      1  0.4835920000000  0.5529590000000  0.5651690000000 1.0
C      1  0.5156920000000  0.5551100000000  0.4366560000000 1.0
C      1  0.5102760000000  0.4312510000000  0.4437040000000 1.0
C      1  0.4336280000000  0.4430050000000  0.5105760000000 1.0
C      1  0.4426560000000  0.5146060000000  0.4308950000000 1.0
C      1  0.4879900000000  0.4323480000000  0.5593540000000 1.0
C      1  0.4903420000000  0.5689610000000  0.4430990000000 1.0
C      1  0.5104060000000  0.5671640000000  0.5591360000000 1.0
C      1  0.5691200000000  0.4421250000000  0.4875140000000 1.0
C      1  0.5665980000000  0.5578090000000  0.5111600000000 1.0
C      1  0.4308080000000  0.5594910000000  0.4859970000000 1.0
C      1  0.5584000000000  0.5100810000000  0.5668160000000 1.0
C      1  0.5574800000000  0.4855510000000  0.4301960000000 1.0
C      1  0.4417330000000  0.4894370000000  0.5668150000000 1.0
C      1  0.4442610000000  0.4336660000000  0.5104940000000 1.0
C      1  0.5104310000000  0.4406010000000  0.4332230000000 1.0
C      1  0.4321670000000  0.5147160000000  0.4406320000000 1.0
C      1  0.5594320000000  0.4317130000000  0.4879280000000 1.0
C      1  0.4408580000000  0.5696340000000  0.4865310000000 1.0
C      1  0.5564570000000  0.5675780000000  0.5112470000000 1.0
C      1  0.4879130000000  0.4424520000000  0.5691310000000 1.0
C      1  0.5106520000000  0.5565630000000  0.5683610000000 1.0
C      1  0.4900520000000  0.5592830000000  0.4329170000000 1.0
C      1  0.5679260000000  0.5098570000000  0.5564580000000 1.0
C      1  0.4317490000000  0.4893060000000  0.5568680000000 1.0
C      1  0.5679170000000  0.4859770000000  0.4399570000000 1.0
C      1  0.4498560000000  0.4466310000000  0.4607600000000 1.0
C      1  0.4392960000000  0.4660280000000  0.4503310000000 1.0
C      1  0.4615280000000  0.4568320000000  0.4398480000000 1.0
C      1  0.5490530000000  0.4368460000000  0.5367410000000 1.0
C      1  0.5502250000000  0.5543260000000  0.4600880000000 1.0
C      1  0.4491760000000  0.5616910000000  0.5351770000000 1.0
C      1  0.5592010000000  0.4581240000000  0.5473600000000 1.0
C      1  0.5610190000000  0.5342050000000  0.4498290000000 1.0
C      1  0.4373840000000  0.5389910000000  0.5451090000000 1.0
C      1  0.5390670000000  0.4481160000000  0.5571300000000 1.0
C      1  0.5394300000000  0.5448750000000  0.4391720000000 1.0
C      1  0.4596800000000  0.5496120000000  0.5538840000000 1.0
C      1  0.4601340000000  0.4469230000000  0.4505540000000 1.0
C      1  0.4508720000000  0.4666460000000  0.4389580000000 1.0
C      1  0.4383130000000  0.4554980000000  0.4612110000000 1.0
C      1  0.5379780000000  0.4378820000000  0.5464900000000 1.0
C      1  0.4603480000000  0.5615720000000  0.5456490000000 1.0
C      1  0.5402670000000  0.5549050000000  0.4496720000000 1.0
C      1  0.5492650000000  0.4581820000000  0.5578250000000 1.0
C      1  0.4491470000000  0.5394430000000  0.5538760000000 1.0
C      1  0.5499230000000  0.5349920000000  0.4388680000000 1.0
C      1  0.5589110000000  0.4477270000000  0.5373480000000 1.0
C      1  0.4382280000000  0.5501040000000  0.5351770000000 1.0
C      1  0.5602100000000  0.5438040000000  0.4610450000000 1.0
C      1  0.4344320000000  0.5152970000000  0.4955840000000 1.0
C      1  0.5155400000000  0.4973160000000  0.4343550000000 1.0
C      1  0.5029920000000  0.4329730000000  0.5225920000000 1.0
C      1  0.5658550000000  0.5204830000000  0.4972570000000 1.0
C      1  0.5669460000000  0.4865160000000  0.4947040000000 1.0
C      1  0.4354600000000  0.4866520000000  0.5019970000000 1.0
C      1  0.4798740000000  0.5003560000000  0.5700470000000 1.0
C      1  0.4842260000000  0.5016320000000  0.4348200000000 1.0
C      1  0.5204810000000  0.4989710000000  0.5702970000000 1.0
C      1  0.5005740000000  0.4307680000000  0.4819760000000 1.0
C      1  0.4993240000000  0.5673120000000  0.5189880000000 1.0
C      1  0.5000060000000  0.5701420000000  0.4815880000000 1.0
C      1  0.5021240000000  0.5210120000000  0.4342010000000 1.0
C      1  0.4352220000000  0.4978710000000  0.5131820000000 1.0
C      1  0.5185800000000  0.4334130000000  0.5009960000000 1.0
C      1  0.4997440000000  0.5190770000000  0.5699440000000 1.0
C      1  0.5002420000000  0.4799890000000  0.5708120000000 1.0
C      1  0.4982600000000  0.4784500000000  0.4340140000000 1.0
C      1  0.5657470000000  0.4975520000000  0.4837560000000 1.0
C      1  0.4347000000000  0.5045120000000  0.4847990000000 1.0
C      1  0.5677320000000  0.4990350000000  0.5184190000000 1.0
C      1  0.4843980000000  0.4330210000000  0.5027220000000 1.0
C      1  0.5185180000000  0.5696350000000  0.5008620000000 1.0
C      1  0.4815020000000  0.5677500000000  0.5003390000000 1.0
C      1  0.5297010000000  0.5118170000000  0.5517080000000 1.0
C      1  0.5117970000000  0.5504760000000  0.5305570000000 1.0
C      1  0.5492320000000  0.5291970000000  0.5123580000000 1.0
C      1  0.4706060000000  0.5131330000000  0.4498130000000 1.0
C      1  0.4701040000000  0.4875990000000  0.5516460000000 1.0
C      1  0.5298960000000  0.4860040000000  0.4494780000000 1.0
C      1  0.4874900000000  0.5524100000000  0.4706390000000 1.0
C      1  0.4881110000000  0.4498690000000  0.5309730000000 1.0
C      1  0.5133280000000  0.4481820000000  0.4712060000000 1.0
C      1  0.4496690000000  0.5316030000000  0.4862890000000 1.0
C      1  0.4508190000000  0.4707320000000  0.5121590000000 1.0
C      1  0.5514540000000  0.4693390000000  0.4864170000000 1.0
C      1  0.5500250000000  0.5117640000000  0.5294470000000 1.0
C      1  0.5290430000000  0.5513960000000  0.5132180000000 1.0
C      1  0.5123690000000  0.5292590000000  0.5517890000000 1.0
C      1  0.4500570000000  0.5143600000000  0.4690110000000 1.0
C      1  0.5504400000000  0.4870760000000  0.4689120000000 1.0
C      1  0.4503430000000  0.4880780000000  0.5295630000000 1.0
C      1  0.4696870000000  0.5519470000000  0.4878720000000 1.0
C      1  0.5309480000000  0.4493020000000  0.4887250000000 1.0
C      1  0.4711200000000  0.4498970000000  0.5132630000000 1.0
C      1  0.4880450000000  0.5306170000000  0.4506630000000 1.0
C      1  0.5127580000000  0.4690440000000  0.4504050000000 1.0
C      1  0.4873680000000  0.4702850000000  0.5528570000000 1.0
C      1  0.5422110000000  0.4998670000000  0.5783620000000 1.0
C      1  0.4968520000000  0.5772270000000  0.5436650000000 1.0
C      1  0.5752510000000  0.5411480000000  0.4983700000000 1.0
C      1  0.4589650000000  0.5007840000000  0.4219300000000 1.0
C      1  0.4580900000000  0.5001610000000  0.5781840000000 1.0
C      1  0.5408850000000  0.4987070000000  0.4206970000000 1.0
C      1  0.5007170000000  0.5794480000000  0.4603610000000 1.0
C      1  0.5010720000000  0.4233540000000  0.5430440000000 1.0
C      1  0.4998510000000  0.4212710000000  0.4610090000000 1.0
C      1  0.4207720000000  0.5426020000000  0.4986290000000 1.0
C      1  0.4234350000000  0.4592620000000  0.4975750000000 1.0
C      1  0.5815040000000  0.4586820000000  0.4976800000000 1.0
C      1  0.5776050000000  0.4991090000000  0.5391480000000 1.0
C      1  0.5397220000000  0.5788200000000  0.5009680000000 1.0
C      1  0.5003120000000  0.5400070000000  0.5792420000000 1.0
C      1  0.4219010000000  0.5015110000000  0.4570700000000 1.0
C      1  0.5776740000000  0.4999890000000  0.4558590000000 1.0
C      1  0.4225430000000  0.5023530000000  0.5402400000000 1.0
C      1  0.4564030000000  0.5789210000000  0.5009750000000 1.0
C      1  0.5437640000000  0.4217280000000  0.5017940000000 1.0
C      1  0.4604350000000  0.4213100000000  0.5001480000000 1.0
C      1  0.5019110000000  0.5419670000000  0.4240200000000 1.0
C      1  0.4984810000000  0.4576790000000  0.4240190000000 1.0
C      1  0.4984970000000  0.4588630000000  0.5801850000000 1.0
C      1  0.4894250000000  0.5292210000000  0.5503700000000 1.0
C      1  0.5291310000000  0.5505520000000  0.4898260000000 1.0
C      1  0.5484630000000  0.4885240000000  0.5300500000000 1.0
C      1  0.5106990000000  0.5294800000000  0.4543180000000 1.0
C      1  0.5106770000000  0.4699860000000  0.5517750000000 1.0
C      1  0.4904520000000  0.4704740000000  0.4543010000000 1.0
C      1  0.4694770000000  0.5498100000000  0.5115660000000 1.0
C      1  0.4714310000000  0.4495770000000  0.4901700000000 1.0
C      1  0.5310880000000  0.4516110000000  0.5125650000000 1.0
C      1  0.4491970000000  0.4918530000000  0.4700680000000 1.0
C      1  0.4512340000000  0.5112390000000  0.5292580000000 1.0
C      1  0.5481460000000  0.5108420000000  0.4697180000000 1.0
C      1  0.5453910000000  0.5290180000000  0.4898800000000 1.0
C      1  0.4887640000000  0.5492250000000  0.5309310000000 1.0
C      1  0.5296670000000  0.4887100000000  0.5508280000000 1.0
C      1  0.4481450000000  0.5304030000000  0.5086420000000 1.0
C      1  0.5560580000000  0.4695430000000  0.5083460000000 1.0
C      1  0.4524250000000  0.4710240000000  0.4889450000000 1.0
C      1  0.5107380000000  0.5511460000000  0.4709420000000 1.0
C      1  0.4900850000000  0.4496880000000  0.4712210000000 1.0
C      1  0.5106640000000  0.4533990000000  0.5308770000000 1.0
C      1  0.4707970000000  0.4892620000000  0.4513870000000 1.0
C      1  0.5297620000000  0.5084590000000  0.4476360000000 1.0
C      1  0.4704770000000  0.5103870000000  0.5501210000000 1.0
C      1  0.4677560000000  0.5424910000000  0.5234730000000 1.0
C      1  0.5422730000000  0.5236640000000  0.4676990000000 1.0
C      1  0.5237700000000  0.4638240000000  0.5499920000000 1.0
C      1  0.5350960000000  0.5480670000000  0.4764130000000 1.0
C      1  0.5328970000000  0.4568890000000  0.5255650000000 1.0
C      1  0.4663330000000  0.4528950000000  0.4768390000000 1.0
C      1  0.4579730000000  0.5225610000000  0.5332740000000 1.0
C      1  0.4451780000000  0.4804490000000  0.4641520000000 1.0
C      1  0.5459790000000  0.4759220000000  0.5373110000000 1.0
C      1  0.4776910000000  0.4651680000000  0.4544480000000 1.0
C      1  0.4761750000000  0.5345940000000  0.5470480000000 1.0
C      1  0.5232180000000  0.5359320000000  0.4545450000000 1.0
C      1  0.5239350000000  0.5486010000000  0.4650500000000 1.0
C      1  0.4650480000000  0.5233680000000  0.5469380000000 1.0
C      1  0.5565310000000  0.4637370000000  0.5209030000000 1.0
C      1  0.4774830000000  0.5419110000000  0.5333180000000 1.0
C      1  0.5232660000000  0.4535610000000  0.5368980000000 1.0
C      1  0.4769520000000  0.4524570000000  0.4650860000000 1.0
C      1  0.5362900000000  0.5196520000000  0.4440080000000 1.0
C      1  0.4687340000000  0.4767310000000  0.4572960000000 1.0
C      1  0.5351360000000  0.4753130000000  0.5501640000000 1.0
C      1  0.4592640000000  0.4668690000000  0.4776830000000 1.0
C      1  0.5453070000000  0.5349730000000  0.4772070000000 1.0
C      1  0.4437010000000  0.5362660000000  0.5199420000000 1.0
C      1  0.5500330000000  0.4293770000000  0.5237980000000 1.0
C      1  0.4303320000000  0.5252680000000  0.5450810000000 1.0
C      1  0.5234640000000  0.5421830000000  0.4376680000000 1.0
C      1  0.4550960000000  0.4420860000000  0.4736300000000 1.0
C      1  0.4492610000000  0.5704370000000  0.5229790000000 1.0
C      1  0.5450570000000  0.5595190000000  0.4730570000000 1.0
C      1  0.5695550000000  0.5219410000000  0.4496160000000 1.0
C      1  0.5610760000000  0.4724940000000  0.5440110000000 1.0
C      1  0.4337010000000  0.4803100000000  0.4536350000000 1.0
C      1  0.4728380000000  0.5446750000000  0.5588340000000 1.0
C      1  0.4772830000000  0.4585280000000  0.4380200000000 1.0
C      1  0.5262370000000  0.4536090000000  0.5618460000000 1.0
C      1  0.5226430000000  0.4370240000000  0.5438440000000 1.0
C      1  0.5457080000000  0.5205170000000  0.4322030000000 1.0
C      1  0.4323470000000  0.5462920000000  0.5204400000000 1.0
C      1  0.4729600000000  0.4411690000000  0.4553190000000 1.0
C      1  0.5275630000000  0.5600320000000  0.4547950000000 1.0
C      1  0.4737610000000  0.5688030000000  0.5479440000000 1.0
C      1  0.4539270000000  0.5264470000000  0.5583380000000 1.0
C      1  0.5453990000000  0.4719920000000  0.5616090000000 1.0
C      1  0.4518370000000  0.4786980000000  0.4298770000000 1.0
C      1  0.5614300000000  0.5416270000000  0.4768630000000 1.0
C      1  0.4314030000000  0.4549260000000  0.4748380000000 1.0
C      1  0.5640070000000  0.4521660000000  0.5242600000000 1.0
C      1  0.5208360000000  0.4287530000000  0.4538860000000 1.0
C      1  0.4307330000000  0.4543960000000  0.5193320000000 1.0
C      1  0.4549940000000  0.5224040000000  0.4293250000000 1.0
C      1  0.4790500000000  0.4299290000000  0.5479150000000 1.0
C      1  0.4798400000000  0.5715820000000  0.4531020000000 1.0
C      1  0.5191330000000  0.5700490000000  0.5476750000000 1.0
C      1  0.5707550000000  0.4529940000000  0.4779180000000 1.0
C      1  0.5693150000000  0.5464760000000  0.5202540000000 1.0
C      1  0.4294980000000  0.5477660000000  0.4776150000000 1.0
C      1  0.5479490000000  0.5204630000000  0.5698600000000 1.0
C      1  0.5454190000000  0.4773500000000  0.4288810000000 1.0
C      1  0.4518850000000  0.4792180000000  0.5700130000000 1.0
C      1  0.4544010000000  0.4306250000000  0.5206360000000 1.0
C      1  0.5199730000000  0.4513960000000  0.4303630000000 1.0
C      1  0.4301940000000  0.5228400000000  0.4524280000000 1.0
C      1  0.5473460000000  0.4291740000000  0.4799670000000 1.0
C      1  0.4531960000000  0.5718010000000  0.4788450000000 1.0
C      1  0.5463300000000  0.5701850000000  0.5217900000000 1.0
C      1  0.4778170000000  0.4531140000000  0.5714790000000 1.0
C      1  0.5211510000000  0.5463250000000  0.5709130000000 1.0
C      1  0.4805670000000  0.5483370000000  0.4303800000000 1.0
C      1  0.5701180000000  0.5200500000000  0.5459120000000 1.0
C      1  0.4297990000000  0.4805650000000  0.5452950000000 1.0
C      1  0.5700130000000  0.4782190000000  0.4520900000000 1.0
C      1  0.5366160000000  0.5478910000000  0.5012930000000 1.0
C      1  0.5463730000000  0.5000840000000  0.5372890000000 1.0
C      1  0.5006110000000  0.5369280000000  0.5479910000000 1.0
C      1  0.4614700000000  0.5488660000000  0.4998900000000 1.0
C      1  0.4636560000000  0.4529110000000  0.5011150000000 1.0
C      1  0.5391420000000  0.4528950000000  0.5008090000000 1.0
C      1  0.4521080000000  0.5022860000000  0.4611720000000 1.0
C      1  0.4527800000000  0.4999430000000  0.5375810000000 1.0
C      1  0.5474450000000  0.4994810000000  0.4610650000000 1.0
C      1  0.4997700000000  0.5379170000000  0.4546220000000 1.0
C      1  0.4991530000000  0.4625250000000  0.5495270000000 1.0
C      1  0.5011280000000  0.4618110000000  0.4544640000000 1.0
C      1  0.5002140000000  0.5472480000000  0.5386540000000 1.0
C      1  0.5371920000000  0.5000100000000  0.5476520000000 1.0
C      1  0.5450370000000  0.5369790000000  0.5010080000000 1.0
C      1  0.4994550000000  0.5487150000000  0.4632200000000 1.0
C      1  0.5014740000000  0.4515880000000  0.4636410000000 1.0
C      1  0.4994530000000  0.4538090000000  0.5388330000000 1.0
C      1  0.4624760000000  0.5008650000000  0.4520700000000 1.0
C      1  0.5381660000000  0.4978690000000  0.4508470000000 1.0
C      1  0.4627530000000  0.4993810000000  0.5472850000000 1.0
C      1  0.4512960000000  0.5394670000000  0.4983590000000 1.0
C      1  0.5500370000000  0.4614410000000  0.4985910000000 1.0
C      1  0.4538510000000  0.4627930000000  0.5002920000000 1.0
C      1  0.5417440000000  0.5310570000000  0.5622230000000 1.0
C      1  0.5302810000000  0.5623900000000  0.5419800000000 1.0
C      1  0.5616910000000  0.5406940000000  0.5310920000000 1.0
C      1  0.4603560000000  0.5328860000000  0.4373520000000 1.0
C      1  0.4577300000000  0.4685270000000  0.5623310000000 1.0
C      1  0.5403990000000  0.4668690000000  0.4372500000000 1.0
C      1  0.4689610000000  0.5637210000000  0.4583980000000 1.0
C      1  0.4687380000000  0.4379750000000  0.5418380000000 1.0
C      1  0.5318070000000  0.4365940000000  0.4592380000000 1.0
C      1  0.4381500000000  0.5429860000000  0.4673770000000 1.0
C      1  0.4380850000000  0.4596120000000  0.5305930000000 1.0
C      1  0.5623420000000  0.4577080000000  0.4674350000000 1.0
C      1  0.5619130000000  0.5308190000000  0.5408450000000 1.0
C      1  0.5405660000000  0.5621150000000  0.5325170000000 1.0
C      1  0.5317460000000  0.5408100000000  0.5626400000000 1.0
C      1  0.4384090000000  0.5332220000000  0.4576070000000 1.0
C      1  0.5621980000000  0.4676780000000  0.4577350000000 1.0
C      1  0.4377130000000  0.4694920000000  0.5404090000000 1.0
C      1  0.4592100000000  0.5641060000000  0.4682740000000 1.0
C      1  0.5415680000000  0.4365910000000  0.4691450000000 1.0
C      1  0.4590760000000  0.4382790000000  0.5318680000000 1.0
C      1  0.4698050000000  0.5429090000000  0.4380020000000 1.0
C      1  0.5308170000000  0.4569340000000  0.4379750000000 1.0
C      1  0.4676600000000  0.4587980000000  0.5629490000000 1.0
C      1  0.4288980000000  0.4464450000000  0.4974010000000 1.0
C      1  0.4455630000000  0.5015510000000  0.4258810000000 1.0
C      1  0.4965820000000  0.4278520000000  0.4490710000000 1.0
C      1  0.5743500000000  0.4465340000000  0.5004540000000 1.0
C      1  0.5699350000000  0.5537960000000  0.4974830000000 1.0
C      1  0.4254530000000  0.5558520000000  0.4988830000000 1.0
C      1  0.5537840000000  0.4965640000000  0.5711350000000 1.0
C      1  0.5542810000000  0.4986040000000  0.4250790000000 1.0
C      1  0.4466720000000  0.5030380000000  0.5707600000000 1.0
C      1  0.5017360000000  0.4286860000000  0.5556720000000 1.0
C      1  0.5039630000000  0.5726640000000  0.4484460000000 1.0
C      1  0.4968410000000  0.5713590000000  0.5562030000000 1.0
C      1  0.4969850000000  0.4451670000000  0.4296100000000 1.0
C      1  0.4269710000000  0.5016670000000  0.4439530000000 1.0
C      1  0.4492160000000  0.4298330000000  0.4972530000000 1.0
C      1  0.5014910000000  0.4470030000000  0.5735130000000 1.0
C      1  0.4969930000000  0.5514560000000  0.5722070000000 1.0
C      1  0.5033860000000  0.5546590000000  0.4292870000000 1.0
C      1  0.5715350000000  0.4962220000000  0.5514380000000 1.0
C      1  0.4273970000000  0.5025950000000  0.5532690000000 1.0
C      1  0.5731180000000  0.4991270000000  0.4427100000000 1.0
C      1  0.5567880000000  0.4266870000000  0.5010290000000 1.0
C      1  0.4432530000000  0.5744490000000  0.4998390000000 1.0
C      1  0.5513840000000  0.5718540000000  0.4975590000000 1.0
C      1  0.4253310000000  0.5141970000000  0.4628980000000 1.0
C      1  0.5119620000000  0.4619670000000  0.4255430000000 1.0
C      1  0.4654770000000  0.4251000000000  0.5135820000000 1.0
C      1  0.5751520000000  0.5127850000000  0.5349140000000 1.0
C      1  0.5748150000000  0.4873910000000  0.4621800000000 1.0
C      1  0.4254380000000  0.4891350000000  0.5346230000000 1.0
C      1  0.4851870000000  0.4635360000000  0.5774150000000 1.0
C      1  0.4884850000000  0.5375740000000  0.4257680000000 1.0
C      1  0.5139370000000  0.5357660000000  0.5767370000000 1.0
C      1  0.5372740000000  0.4244170000000  0.4891170000000 1.0
C      1  0.5357330000000  0.5760560000000  0.5147300000000 1.0
C      1  0.4630480000000  0.5764570000000  0.4882740000000 1.0
C      1  0.4653990000000  0.5133370000000  0.4251480000000 1.0
C      1  0.4260420000000  0.4649320000000  0.5107520000000 1.0
C      1  0.5137600000000  0.4235250000000  0.4648140000000 1.0
C      1  0.5375970000000  0.5133190000000  0.5761060000000 1.0
C      1  0.4623350000000  0.4865150000000  0.5760760000000 1.0
C      1  0.5347860000000  0.4860280000000  0.4244810000000 1.0
C      1  0.5762310000000  0.4640580000000  0.4850860000000 1.0
C      1  0.4247380000000  0.5370220000000  0.4859520000000 1.0
C      1  0.5740540000000  0.5361610000000  0.5117170000000 1.0
C      1  0.4878280000000  0.4249820000000  0.5379370000000 1.0
C      1  0.5102750000000  0.5752400000000  0.5376860000000 1.0
C      1  0.4868260000000  0.5770030000000  0.4640320000000 1.0
C      1  0.5064780000000  0.5455860000000  0.5170980000000 1.0
C      1  0.5445700000000  0.5156210000000  0.5070890000000 1.0
C      1  0.5162020000000  0.5062770000000  0.5478940000000 1.0
C      1  0.4926130000000  0.5473710000000  0.4839810000000 1.0
C      1  0.4936240000000  0.4545370000000  0.5175190000000 1.0
C      1  0.5080680000000  0.4534070000000  0.4844460000000 1.0
C      1  0.4564050000000  0.5186350000000  0.4914490000000 1.0
C      1  0.4573710000000  0.4839360000000  0.5071060000000 1.0
C      1  0.5451290000000  0.4822560000000  0.4918560000000 1.0
C      1  0.4833360000000  0.5076770000000  0.4565290000000 1.0
C      1  0.4838200000000  0.4928250000000  0.5477660000000 1.0
C      1  0.5173980000000  0.4918490000000  0.4564390000000 1.0
C      1  0.5158120000000  0.5466680000000  0.5076070000000 1.0
C      1  0.5068830000000  0.5157590000000  0.5474970000000 1.0
C      1  0.5449730000000  0.5059780000000  0.5163030000000 1.0
C      1  0.4829040000000  0.5464630000000  0.4931430000000 1.0
C      1  0.5176210000000  0.4546260000000  0.4937570000000 1.0
C      1  0.4844440000000  0.4551630000000  0.5079110000000 1.0
C      1  0.4928760000000  0.5169470000000  0.4559360000000 1.0
C      1  0.5079500000000  0.4826180000000  0.4557530000000 1.0
C      1  0.4932100000000  0.4834370000000  0.5483290000000 1.0
C      1  0.4566470000000  0.5092970000000  0.4820230000000 1.0
C      1  0.5443320000000  0.4916480000000  0.4823050000000 1.0
C      1  0.4572240000000  0.4933400000000  0.5165470000000 1.0
C      1  0.4832540000000  0.5058340000000  0.5558940000000 1.0
C      1  0.5056860000000  0.5557420000000  0.4841070000000 1.0
C      1  0.5546880000000  0.4837270000000  0.5042030000000 1.0
C      1  0.5157980000000  0.5045090000000  0.4475110000000 1.0
C      1  0.5167290000000  0.4935340000000  0.5564930000000 1.0
C      1  0.4843050000000  0.4944480000000  0.4479850000000 1.0
C      1  0.4932570000000  0.5540460000000  0.5174150000000 1.0
C      1  0.4949300000000  0.4452140000000  0.4844650000000 1.0
C      1  0.5070410000000  0.4471880000000  0.5180110000000 1.0
C      1  0.4489560000000  0.4851250000000  0.4939080000000 1.0
C      1  0.4477350000000  0.5165890000000  0.5039560000000 1.0
C      1  0.5514820000000  0.5160300000000  0.4934990000000 1.0
C      1  0.5520100000000  0.5052090000000  0.4830810000000 1.0
C      1  0.4827570000000  0.5543940000000  0.5066400000000 1.0
C      1  0.5060110000000  0.4830910000000  0.5568790000000 1.0
C      1  0.4483900000000  0.5062770000000  0.5150940000000 1.0
C      1  0.5533260000000  0.4929470000000  0.5162250000000 1.0
C      1  0.4482840000000  0.4964540000000  0.4838150000000 1.0
C      1  0.5160420000000  0.5554340000000  0.4947390000000 1.0
C      1  0.4846630000000  0.4456820000000  0.4951800000000 1.0
C      1  0.5177110000000  0.4468930000000  0.5073330000000 1.0
C      1  0.4946120000000  0.4832880000000  0.4482910000000 1.0
C      1  0.5062700000000  0.5164150000000  0.4486100000000 1.0
C      1  0.4939420000000  0.5163110000000  0.5558510000000 1.0
C      1  0.5656530000000  0.5130070000000  0.5232260000000 1.0
C      1  0.5137380000000  0.5238560000000  0.5677790000000 1.0
C      1  0.5237950000000  0.5670230000000  0.5146300000000 1.0
C      1  0.4351840000000  0.5150900000000  0.4743110000000 1.0
C      1  0.4354920000000  0.4872100000000  0.5235220000000 1.0
C      1  0.5655000000000  0.4863960000000  0.4738320000000 1.0
C      1  0.4880740000000  0.5258730000000  0.4352920000000 1.0
C      1  0.4860830000000  0.4757210000000  0.5687350000000 1.0
C      1  0.5123590000000  0.4736320000000  0.4350080000000 1.0
C      1  0.4753370000000  0.5674260000000  0.4873860000000 1.0
C      1  0.4772850000000  0.4344370000000  0.5149440000000 1.0
C      1  0.5250720000000  0.4335520000000  0.4881770000000 1.0
C      1  0.5249340000000  0.5129350000000  0.5679160000000 1.0
C      1  0.5650930000000  0.5241550000000  0.5118580000000 1.0
C      1  0.5121440000000  0.5665030000000  0.5253360000000 1.0
C      1  0.4773890000000  0.5142170000000  0.4349840000000 1.0
C      1  0.5229110000000  0.4850700000000  0.4346160000000 1.0
C      1  0.4748240000000  0.4865640000000  0.5677920000000 1.0
C      1  0.4349140000000  0.5258900000000  0.4851100000000 1.0
C      1  0.5661010000000  0.4753980000000  0.4845530000000 1.0
C      1  0.4357590000000  0.4763280000000  0.5126850000000 1.0
C      1  0.4863550000000  0.5678640000000  0.4759100000000 1.0
C      1  0.5143040000000  0.4329050000000  0.4765890000000 1.0
C      1  0.4883590000000  0.4340880000000  0.5261970000000 1.0
C      1  0.4756390000000  0.4858740000000  0.4180460000000 1.0
C      1  0.4900550000000  0.4115080000000  0.4815010000000 1.0
C      1  0.4188750000000  0.4773920000000  0.4844490000000 1.0
C      1  0.5249000000000  0.4847770000000  0.5877630000000 1.0
C      1  0.5239680000000  0.5132480000000  0.4170170000000 1.0
C      1  0.4776370000000  0.5116470000000  0.5885370000000 1.0
C      1  0.5171740000000  0.4167440000000  0.5269690000000 1.0
C      1  0.5098270000000  0.5895860000000  0.4814240000000 1.0
C      1  0.4817170000000  0.5832410000000  0.5273730000000 1.0
C      1  0.5876050000000  0.4785910000000  0.5090550000000 1.0
C      1  0.5817240000000  0.5247820000000  0.4826550000000 1.0
C      1  0.4174490000000  0.5246550000000  0.5121980000000 1.0
C      1  0.4184400000000  0.4875100000000  0.4748670000000 1.0
C      1  0.4801220000000  0.4116990000000  0.4910280000000 1.0
C      1  0.4852180000000  0.4760290000000  0.4176450000000 1.0
C      1  0.5868370000000  0.4881010000000  0.5190490000000 1.0
C      1  0.4181830000000  0.5151060000000  0.5223100000000 1.0
C      1  0.5815040000000  0.5151800000000  0.4727520000000 1.0
C      1  0.5272470000000  0.4169350000000  0.5175270000000 1.0
C      1  0.4720700000000  0.5832450000000  0.5172930000000 1.0
C      1  0.5192550000000  0.5893320000000  0.4912640000000 1.0
C      1  0.5151840000000  0.4755390000000  0.5880140000000 1.0
C      1  0.4872470000000  0.5212570000000  0.5886680000000 1.0
C      1  0.5147040000000  0.5234720000000  0.4177230000000 1.0
C      1  0.4633390000000  0.5492230000000  0.4741640000000 1.0
C      1  0.5476630000000  0.4733240000000  0.4623740000000 1.0
C      1  0.4742050000000  0.4634790000000  0.5485600000000 1.0
C      1  0.5359710000000  0.5474010000000  0.5263730000000 1.0
C      1  0.5373710000000  0.4517070000000  0.4748390000000 1.0
C      1  0.4638980000000  0.4530870000000  0.5262380000000 1.0
C      1  0.4529670000000  0.4747630000000  0.5366860000000 1.0
C      1  0.4529490000000  0.5275710000000  0.4622720000000 1.0
C      1  0.5468280000000  0.5250230000000  0.5365890000000 1.0
C      1  0.5259600000000  0.4618580000000  0.4530250000000 1.0
C      1  0.5254920000000  0.5361850000000  0.5480570000000 1.0
C      1  0.4748850000000  0.5378920000000  0.4530680000000 1.0
C      1  0.4745000000000  0.5489710000000  0.4635400000000 1.0
C      1  0.4632770000000  0.4744590000000  0.5478960000000 1.0
C      1  0.5479630000000  0.4623290000000  0.4735730000000 1.0
C      1  0.5250580000000  0.5472010000000  0.5373810000000 1.0
C      1  0.4745770000000  0.4529010000000  0.5375410000000 1.0
C      1  0.5263120000000  0.4513530000000  0.4640240000000 1.0
C      1  0.5367550000000  0.4728310000000  0.4521610000000 1.0
C      1  0.4639910000000  0.5269150000000  0.4522730000000 1.0
C      1  0.5364390000000  0.5250910000000  0.5477360000000 1.0
C      1  0.4532480000000  0.4637900000000  0.5256600000000 1.0
C      1  0.5464990000000  0.5361980000000  0.5258190000000 1.0
C      1  0.4526980000000  0.5386460000000  0.4732940000000 1.0
C      1  0.5868470000000  0.4925470000000  0.4863550000000 1.0
C      1  0.4906090000000  0.4886170000000  0.5892200000000 1.0
C      1  0.4865880000000  0.5875340000000  0.4946500000000 1.0
C      1  0.4150400000000  0.4913480000000  0.5081890000000 1.0
C      1  0.4141310000000  0.5102360000000  0.4893190000000 1.0
C      1  0.5855060000000  0.5119810000000  0.5066350000000 1.0
C      1  0.4907160000000  0.5093220000000  0.4153010000000 1.0
C      1  0.5054050000000  0.5869380000000  0.5142060000000 1.0
C      1  0.5133380000000  0.4131610000000  0.4944700000000 1.0
C      1  0.4933820000000  0.4135880000000  0.5135840000000 1.0
C      1  0.5090510000000  0.4900300000000  0.4148520000000 1.0
C      1  0.5115450000000  0.5096860000000  0.5886600000000 1.0
C      1  0.4566520000000  0.5339670000000  0.5253410000000 1.0
C      1  0.5342850000000  0.5263270000000  0.4563490000000 1.0
C      1  0.5436710000000  0.4655030000000  0.5277340000000 1.0
C      1  0.4580840000000  0.4747670000000  0.4662440000000 1.0
END
