TITL C-616442-5639-78 2.70555912045159 1000000 -3699.48131420599 0 0 520 (C1) n - 1
REM
REM in /scratch/bkarasulu/Only-C240/Try3-MINAMP_3A
REM
REM
REM
REM
REM
REM ./C.cell (861c01eed278495e92615705e35c7759)
REM
REM compiler GCC version 9.2.1 20190827 (Red Hat 9.2.1-1)
REM options -cpp -mtune=generic -march=x86-64 -g -O0 -fpre-include=/usr/include/finclude/math-vector-fortran.h
REM seed 451033918 644207523 337806303 1353053610 -571468436 2024704392 -53094214 -1545679162 1696889305 -1646838103 576834829 1157857371 690243448 -973017810 -1199426174 -462774054 -1397611200 1034643225 661629763 1878360499 204940946 -790174515 193611247 -244960515 990380961 -1941140816 1330040864 1739919706 1350698897 -2052447709 2103720182 1241474896 118705242
REM
CELL 1.54180  100.00000  100.00000  100.00000   90.00000   90.00000   90.00000
LATT -1
SFAC C  
C      1  0.4684460000000  0.5006620000000  0.4420200000000 1.0
C      1  0.4701390000000  0.4512490000000  0.5279490000000 1.0
C      1  0.4693460000000  0.5493780000000  0.5295560000000 1.0
C      1  0.4688640000000  0.5006080000000  0.5764290000000 1.0
C      1  0.4682410000000  0.5662730000000  0.4604190000000 1.0
C      1  0.4711140000000  0.4318450000000  0.4616660000000 1.0
C      1  0.4503120000000  0.4576290000000  0.4552410000000 1.0
C      1  0.4496920000000  0.4829670000000  0.5546850000000 1.0
C      1  0.4481530000000  0.5566000000000  0.4861800000000 1.0
C      1  0.4452590000000  0.5371090000000  0.4529740000000 1.0
C      1  0.4460230000000  0.4409990000000  0.4897090000000 1.0
C      1  0.4467050000000  0.5222550000000  0.5542300000000 1.0
C      1  0.4987240000000  0.5924200000000  0.5260980000000 1.0
C      1  0.4990220000000  0.4788460000000  0.4065850000000 1.0
C      1  0.4997020000000  0.4300510000000  0.5649410000000 1.0
C      1  0.4751810000000  0.5353250000000  0.5351800000000 1.0
C      1  0.4732510000000  0.5123310000000  0.4524430000000 1.0
C      1  0.4752070000000  0.4532170000000  0.5123690000000 1.0
C      1  0.5191590000000  0.4916220000000  0.4176290000000 1.0
C      1  0.5201150000000  0.4321850000000  0.5484060000000 1.0
C      1  0.5179580000000  0.5773340000000  0.5305430000000 1.0
C      1  0.4838560000000  0.5199100000000  0.4133930000000 1.0
C      1  0.4831470000000  0.4159590000000  0.5266120000000 1.0
C      1  0.4878970000000  0.5660250000000  0.5608110000000 1.0
C      1  0.4360360000000  0.5353250000000  0.4775170000000 1.0
C      1  0.4373820000000  0.4616190000000  0.4769600000000 1.0
C      1  0.4380100000000  0.5008440000000  0.5424360000000 1.0
C      1  0.5126290000000  0.4308820000000  0.5041210000000 1.0
C      1  0.5128580000000  0.5360360000000  0.5581670000000 1.0
C      1  0.5121020000000  0.5307960000000  0.4403100000000 1.0
C      1  0.4976240000000  0.5585110000000  0.4920950000000 1.0
C      1  0.4986570000000  0.4669930000000  0.4516970000000 1.0
C      1  0.4987850000000  0.4775690000000  0.5546390000000 1.0
C      1  0.5073370000000  0.4590370000000  0.4261460000000 1.0
C      1  0.5118960000000  0.4519790000000  0.5783740000000 1.0
C      1  0.5104110000000  0.5924120000000  0.5002320000000 1.0
C      1  0.4969340000000  0.4419730000000  0.4409030000000 1.0
C      1  0.5052040000000  0.4730110000000  0.5851900000000 1.0
C      1  0.5036580000000  0.5871060000000  0.4789050000000 1.0
C      1  0.4676630000000  0.4784400000000  0.5698270000000 1.0
C      1  0.4670860000000  0.5722260000000  0.4826710000000 1.0
C      1  0.4719510000000  0.4473770000000  0.4429140000000 1.0
C      1  0.5472470000000  0.4960430000000  0.5083560000000 1.0
C      1  0.5471000000000  0.5093350000000  0.5000520000000 1.0
C      1  0.5469110000000  0.4944660000000  0.4931830000000 1.0
C      1  0.5528760000000  0.5076170000000  0.5373940000000 1.0
C      1  0.5512440000000  0.5283410000000  0.4755170000000 1.0
C      1  0.5515740000000  0.4633860000000  0.4877890000000 1.0
C      1  0.4551960000000  0.4856430000000  0.4643230000000 1.0
C      1  0.4564910000000  0.4782350000000  0.5258560000000 1.0
C      1  0.4533620000000  0.5204090000000  0.5120650000000 1.0
C      1  0.4974990000000  0.4503400000000  0.5783720000000 1.0
C      1  0.4959220000000  0.5928700000000  0.5022190000000 1.0
C      1  0.4953380000000  0.4573900000000  0.4178100000000 1.0
C      1  0.4723450000000  0.4935850000000  0.5285960000000 1.0
C      1  0.4693860000000  0.5287980000000  0.4922520000000 1.0
C      1  0.4710670000000  0.4769490000000  0.4780230000000 1.0
C      1  0.4362830000000  0.4789660000000  0.5316870000000 1.0
C      1  0.4330820000000  0.5407380000000  0.5004160000000 1.0
C      1  0.4357250000000  0.4782290000000  0.4611430000000 1.0
C      1  0.5673470000000  0.5292180000000  0.4772520000000 1.0
C      1  0.5678710000000  0.4652830000000  0.4862280000000 1.0
C      1  0.5687610000000  0.5070100000000  0.5383690000000 1.0
C      1  0.4314060000000  0.4687270000000  0.5006790000000 1.0
C      1  0.4301170000000  0.5208420000000  0.5281020000000 1.0
C      1  0.4296220000000  0.5139390000000  0.4675620000000 1.0
C      1  0.5541460000000  0.4538010000000  0.5295360000000 1.0
C      1  0.5538580000000  0.5498010000000  0.5251950000000 1.0
C      1  0.5532840000000  0.4961270000000  0.4461840000000 1.0
C      1  0.5348330000000  0.4642260000000  0.5176690000000 1.0
C      1  0.5353620000000  0.5344910000000  0.5224170000000 1.0
C      1  0.5344720000000  0.5013330000000  0.4607310000000 1.0
C      1  0.5066540000000  0.5465670000000  0.4906350000000 1.0
C      1  0.5072920000000  0.4662980000000  0.4625630000000 1.0
C      1  0.5080220000000  0.4847690000000  0.5451460000000 1.0
C      1  0.4770060000000  0.4717190000000  0.4143280000000 1.0
C      1  0.4787930000000  0.4421410000000  0.5670040000000 1.0
C      1  0.4777550000000  0.5863120000000  0.5161870000000 1.0
C      1  0.4890620000000  0.5427170000000  0.5549830000000 1.0
C      1  0.4872010000000  0.5251470000000  0.4359530000000 1.0
C      1  0.4881660000000  0.4320530000000  0.5106330000000 1.0
C      1  0.4255330000000  0.4826450000000  0.4833990000000 1.0
C      1  0.4248450000000  0.4987230000000  0.5222790000000 1.0
C      1  0.4247550000000  0.5181230000000  0.4916230000000 1.0
C      1  0.4285730000000  0.4851810000000  0.5206610000000 1.0
C      1  0.4264610000000  0.5277170000000  0.5023160000000 1.0
C      1  0.4273950000000  0.4864150000000  0.4700220000000 1.0
C      1  0.4981070000000  0.5127430000000  0.5702160000000 1.0
C      1  0.4972550000000  0.5529480000000  0.4524630000000 1.0
C      1  0.4980360000000  0.4300300000000  0.4800440000000 1.0
C      1  0.4575980000000  0.5136940000000  0.4756730000000 1.0
C      1  0.4623130000000  0.4738060000000  0.5003480000000 1.0
C      1  0.4639070000000  0.5155920000000  0.5204070000000 1.0
C      1  0.4931110000000  0.5808340000000  0.5479360000000 1.0
C      1  0.4914490000000  0.5033920000000  0.4060530000000 1.0
C      1  0.4911000000000  0.4174920000000  0.5443270000000 1.0
C      1  0.5443990000000  0.5650100000000  0.4839060000000 1.0
C      1  0.5430680000000  0.4526390000000  0.4523360000000 1.0
C      1  0.5457200000000  0.4809810000000  0.5640250000000 1.0
C      1  0.5262160000000  0.5488040000000  0.5397350000000 1.0
C      1  0.5257220000000  0.5085020000000  0.4395240000000 1.0
C      1  0.5266890000000  0.4421030000000  0.5229810000000 1.0
C      1  0.5132000000000  0.4131770000000  0.4875200000000 1.0
C      1  0.5130540000000  0.5282430000000  0.5810360000000 1.0
C      1  0.5128280000000  0.5542030000000  0.4336450000000 1.0
C      1  0.4958980000000  0.5384700000000  0.5160150000000 1.0
C      1  0.4958290000000  0.4944280000000  0.4588320000000 1.0
C      1  0.4971250000000  0.4673890000000  0.5242300000000 1.0
C      1  0.5372820000000  0.4784920000000  0.4748510000000 1.0
C      1  0.5395220000000  0.4879560000000  0.5311370000000 1.0
C      1  0.5379480000000  0.5332720000000  0.4957590000000 1.0
C      1  0.4838520000000  0.4125800000000  0.4898790000000 1.0
C      1  0.4848170000000  0.5322660000000  0.5808540000000 1.0
C      1  0.4841430000000  0.5533080000000  0.4306890000000 1.0
C      1  0.5330290000000  0.5354170000000  0.5376690000000 1.0
C      1  0.5319440000000  0.5138040000000  0.4522280000000 1.0
C      1  0.5325380000000  0.4503500000000  0.5117440000000 1.0
C      1  0.5266970000000  0.4783920000000  0.4551670000000 1.0
C      1  0.5276440000000  0.4711820000000  0.5404950000000 1.0
C      1  0.5265980000000  0.5503880000000  0.5049840000000 1.0
C      1  0.4856080000000  0.4113480000000  0.4588920000000 1.0
C      1  0.4844090000000  0.5071020000000  0.5959740000000 1.0
C      1  0.4845920000000  0.5792840000000  0.4453170000000 1.0
C      1  0.4647160000000  0.4388290000000  0.5327280000000 1.0
C      1  0.4658730000000  0.5598500000000  0.5390920000000 1.0
C      1  0.4638560000000  0.5032880000000  0.4283510000000 1.0
C      1  0.5530380000000  0.4933640000000  0.5324520000000 1.0
C      1  0.5508600000000  0.5320050000000  0.4897200000000 1.0
C      1  0.5505610000000  0.4742190000000  0.4781360000000 1.0
C      1  0.4419240000000  0.5248610000000  0.4462450000000 1.0
C      1  0.4421060000000  0.4443610000000  0.5030070000000 1.0
C      1  0.4432100000000  0.5341040000000  0.5466970000000 1.0
C      1  0.4453920000000  0.5373020000000  0.4671550000000 1.0
C      1  0.4469420000000  0.4525360000000  0.4815670000000 1.0
C      1  0.4475520000000  0.5097110000000  0.5475080000000 1.0
C      1  0.4944720000000  0.4630340000000  0.4831290000000 1.0
C      1  0.4956560000000  0.5039850000000  0.5398740000000 1.0
C      1  0.4936500000000  0.5316520000000  0.4776200000000 1.0
C      1  0.4544380000000  0.5015920000000  0.4965200000000 1.0
C      1  0.4588860000000  0.5009760000000  0.4826240000000 1.0
C      1  0.4600920000000  0.4926970000000  0.5056780000000 1.0
C      1  0.5217370000000  0.4906270000000  0.4928340000000 1.0
C      1  0.5223610000000  0.4956970000000  0.5153720000000 1.0
C      1  0.5214710000000  0.5149310000000  0.4988700000000 1.0
C      1  0.4634790000000  0.5281290000000  0.4240630000000 1.0
C      1  0.4629320000000  0.4235630000000  0.5136560000000 1.0
C      1  0.4664890000000  0.5526890000000  0.5628350000000 1.0
C      1  0.4448480000000  0.4877880000000  0.4547090000000 1.0
C      1  0.4459780000000  0.4685870000000  0.5276990000000 1.0
C      1  0.4368670000000  0.5468220000000  0.5124200000000 1.0
C      1  0.5197650000000  0.4178180000000  0.5223910000000 1.0
C      1  0.5214520000000  0.5582700000000  0.5622630000000 1.0
C      1  0.5197270000000  0.5220740000000  0.4194740000000 1.0
C      1  0.4372980000000  0.5145320000000  0.4549850000000 1.0
C      1  0.4370410000000  0.4576430000000  0.5071130000000 1.0
C      1  0.4364000000000  0.5326130000000  0.5336380000000 1.0
C      1  0.5452720000000  0.4412010000000  0.5084030000000 1.0
C      1  0.5454530000000  0.5367780000000  0.5469950000000 1.0
C      1  0.5443470000000  0.5212260000000  0.4461120000000 1.0
C      1  0.5384460000000  0.4643270000000  0.4331650000000 1.0
C      1  0.5411750000000  0.4580700000000  0.5637580000000 1.0
C      1  0.5402060000000  0.5768660000000  0.5033940000000 1.0
C      1  0.4396360000000  0.4865580000000  0.5435370000000 1.0
C      1  0.4379700000000  0.5450570000000  0.4877920000000 1.0
C      1  0.4394320000000  0.4648880000000  0.4632330000000 1.0
C      1  0.5494790000000  0.5668000000000  0.5074060000000 1.0
C      1  0.5485160000000  0.4720810000000  0.4398230000000 1.0
C      1  0.5505950000000  0.4601950000000  0.5533160000000 1.0
C      1  0.4724860000000  0.4612980000000  0.4233210000000 1.0
C      1  0.4754960000000  0.4556810000000  0.5705850000000 1.0
C      1  0.4740990000000  0.5825920000000  0.5025880000000 1.0
C      1  0.4479570000000  0.4428530000000  0.5163810000000 1.0
C      1  0.4490340000000  0.5459100000000  0.5492740000000 1.0
C      1  0.4471280000000  0.5205680000000  0.4346360000000 1.0
C      1  0.4655120000000  0.5176280000000  0.4643860000000 1.0
C      1  0.4673900000000  0.4603390000000  0.5015410000000 1.0
C      1  0.4684500000000  0.5224460000000  0.5328930000000 1.0
C      1  0.5341280000000  0.5063920000000  0.4747940000000 1.0
C      1  0.5347060000000  0.4744840000000  0.5066960000000 1.0
C      1  0.5356430000000  0.5198300000000  0.5199250000000 1.0
C      1  0.5597460000000  0.4719790000000  0.5055630000000 1.0
C      1  0.5616750000000  0.5210960000000  0.5220790000000 1.0
C      1  0.5600560000000  0.5081990000000  0.4746350000000 1.0
C      1  0.5474930000000  0.4322090000000  0.5209040000000 1.0
C      1  0.5472810000000  0.5520460000000  0.5483810000000 1.0
C      1  0.5468740000000  0.5149380000000  0.4321960000000 1.0
C      1  0.5047370000000  0.5576450000000  0.5433140000000 1.0
C      1  0.5033140000000  0.5083490000000  0.4302430000000 1.0
C      1  0.5040550000000  0.4353520000000  0.5281080000000 1.0
C      1  0.5511630000000  0.4504800000000  0.5430700000000 1.0
C      1  0.5497310000000  0.5629520000000  0.5212290000000 1.0
C      1  0.5496100000000  0.4859860000000  0.4366350000000 1.0
C      1  0.5253420000000  0.5348150000000  0.4215080000000 1.0
C      1  0.5257150000000  0.4127690000000  0.5105430000000 1.0
C      1  0.5244020000000  0.5501270000000  0.5731500000000 1.0
C      1  0.4576180000000  0.5544410000000  0.4611850000000 1.0
C      1  0.4596990000000  0.4384050000000  0.4706190000000 1.0
C      1  0.4586300000000  0.5063480000000  0.5655190000000 1.0
C      1  0.5145520000000  0.5883270000000  0.4870210000000 1.0
C      1  0.5096000000000  0.4471460000000  0.4349770000000 1.0
C      1  0.5160010000000  0.4654350000000  0.5819590000000 1.0
C      1  0.5196860000000  0.4431460000000  0.5701540000000 1.0
C      1  0.5187240000000  0.5903540000000  0.5116570000000 1.0
C      1  0.5172590000000  0.4675060000000  0.4184680000000 1.0
C      1  0.4732690000000  0.5234320000000  0.5825040000000 1.0
C      1  0.4729410000000  0.5598170000000  0.4379050000000 1.0
C      1  0.4734820000000  0.4155950000000  0.4797320000000 1.0
C      1  0.5184420000000  0.4124920000000  0.4735270000000 1.0
C      1  0.5184710000000  0.5167650000000  0.5884830000000 1.0
C      1  0.5181160000000  0.5665070000000  0.4399530000000 1.0
C      1  0.5587590000000  0.5451880000000  0.4900340000000 1.0
C      1  0.5584810000000  0.4681340000000  0.4663320000000 1.0
C      1  0.5605320000000  0.4862590000000  0.5438150000000 1.0
C      1  0.5089510000000  0.5662590000000  0.4695810000000 1.0
C      1  0.5086500000000  0.4371080000000  0.4604550000000 1.0
C      1  0.5102160000000  0.4921700000000  0.5728180000000 1.0
C      1  0.4922610000000  0.5113660000000  0.4389310000000 1.0
C      1  0.4938630000000  0.4418110000000  0.5203330000000 1.0
C      1  0.4941040000000  0.5479630000000  0.5415720000000 1.0
C      1  0.5688300000000  0.5162120000000  0.4837090000000 1.0
C      1  0.5682540000000  0.4776450000000  0.4946640000000 1.0
C      1  0.5730640000000  0.5132200000000  0.5264600000000 1.0
C      1  0.5104590000000  0.5634000000000  0.5293250000000 1.0
C      1  0.5093640000000  0.4938710000000  0.4313730000000 1.0
C      1  0.5106460000000  0.4435050000000  0.5398390000000 1.0
C      1  0.4371680000000  0.5427850000000  0.5242800000000 1.0
C      1  0.4377770000000  0.5002030000000  0.4543140000000 1.0
C      1  0.4437170000000  0.4567950000000  0.5198890000000 1.0
C      1  0.4781710000000  0.4208090000000  0.5146830000000 1.0
C      1  0.4820590000000  0.5532240000000  0.5641700000000 1.0
C      1  0.4788640000000  0.5284800000000  0.4230510000000 1.0
C      1  0.4794950000000  0.5445450000000  0.5767820000000 1.0
C      1  0.4775580000000  0.5436090000000  0.4232050000000 1.0
C      1  0.4766770000000  0.4127780000000  0.5018140000000 1.0
C      1  0.5484050000000  0.4670170000000  0.5259470000000 1.0
C      1  0.5483930000000  0.5400750000000  0.5153600000000 1.0
C      1  0.5479370000000  0.4927810000000  0.4595950000000 1.0
C      1  0.5427040000000  0.4412250000000  0.4610130000000 1.0
C      1  0.5445060000000  0.4941900000000  0.5696330000000 1.0
C      1  0.5431440000000  0.5626180000000  0.4698290000000 1.0
C      1  0.4861060000000  0.5860470000000  0.4943810000000 1.0
C      1  0.4838050000000  0.4522210000000  0.4239170000000 1.0
C      1  0.4875540000000  0.4607880000000  0.5772250000000 1.0
C      1  0.4540150000000  0.5204510000000  0.5664900000000 1.0
C      1  0.4528450000000  0.5484460000000  0.4486740000000 1.0
C      1  0.4538530000000  0.4312430000000  0.4823370000000 1.0
C      1  0.5316550000000  0.5109330000000  0.5839740000000 1.0
C      1  0.5310710000000  0.5657700000000  0.4476450000000 1.0
C      1  0.5310940000000  0.4200430000000  0.4697440000000 1.0
C      1  0.4636550000000  0.4371810000000  0.4499850000000 1.0
C      1  0.4600690000000  0.4885960000000  0.5763990000000 1.0
C      1  0.4595450000000  0.5727220000000  0.4707860000000 1.0
C      1  0.5842090000000  0.4978620000000  0.4942700000000 1.0
C      1  0.5726320000000  0.4933540000000  0.5130780000000 1.0
C      1  0.5854030000000  0.5095330000000  0.5035100000000 1.0
C      1  0.4858120000000  0.5033590000000  0.5183230000000 1.0
C      1  0.4825670000000  0.5139520000000  0.4876340000000 1.0
C      1  0.4829760000000  0.4818950000000  0.4927330000000 1.0
C      1  0.5159680000000  0.5491540000000  0.5506660000000 1.0
C      1  0.5153270000000  0.5174780000000  0.4338360000000 1.0
C      1  0.5160340000000  0.4325380000000  0.5186870000000 1.0
C      1  0.4612580000000  0.5042330000000  0.5503200000000 1.0
C      1  0.4594730000000  0.5423380000000  0.4707780000000 1.0
C      1  0.4612180000000  0.4526330000000  0.4761970000000 1.0
C      1  0.5033370000000  0.5653420000000  0.5042810000000 1.0
C      1  0.5020010000000  0.4703190000000  0.4383710000000 1.0
C      1  0.5044190000000  0.4638710000000  0.5543980000000 1.0
C      1  0.5093980000000  0.5770210000000  0.4416920000000 1.0
C      1  0.5097710000000  0.4085650000000  0.4635810000000 1.0
C      1  0.5094080000000  0.5101690000000  0.5965090000000 1.0
C      1  0.4859420000000  0.4878810000000  0.4658560000000 1.0
C      1  0.4870380000000  0.4769440000000  0.5258000000000 1.0
C      1  0.4857290000000  0.5347550000000  0.5069460000000 1.0
C      1  0.5369530000000  0.5756990000000  0.4894030000000 1.0
C      1  0.5345720000000  0.4527050000000  0.4409200000000 1.0
C      1  0.5381900000000  0.4705800000000  0.5701080000000 1.0
C      1  0.4863610000000  0.5096960000000  0.5632310000000 1.0
C      1  0.4852350000000  0.5494280000000  0.4590300000000 1.0
C      1  0.4866390000000  0.4381270000000  0.4781740000000 1.0
C      1  0.4773180000000  0.5471660000000  0.5039990000000 1.0
C      1  0.4777590000000  0.4796780000000  0.4560070000000 1.0
C      1  0.4790530000000  0.4734630000000  0.5381140000000 1.0
C      1  0.5122450000000  0.4662670000000  0.5063810000000 1.0
C      1  0.5106410000000  0.5241090000000  0.5251820000000 1.0
C      1  0.5101710000000  0.5097260000000  0.4662040000000 1.0
C      1  0.5215530000000  0.4917690000000  0.4557260000000 1.0
C      1  0.5224780000000  0.4648430000000  0.5284800000000 1.0
C      1  0.5222350000000  0.5429040000000  0.5167000000000 1.0
C      1  0.5178730000000  0.5433450000000  0.4626760000000 1.0
C      1  0.5191330000000  0.4434830000000  0.4827460000000 1.0
C      1  0.5193980000000  0.5105530000000  0.5573220000000 1.0
C      1  0.5548960000000  0.5466050000000  0.5389350000000 1.0
C      1  0.5540620000000  0.5096650000000  0.4420610000000 1.0
C      1  0.5547170000000  0.4434080000000  0.5200680000000 1.0
C      1  0.4975330000000  0.4197980000000  0.5306360000000 1.0
C      1  0.5015200000000  0.5698380000000  0.5539150000000 1.0
C      1  0.4978190000000  0.5141340000000  0.4153580000000 1.0
C      1  0.5204620000000  0.4536130000000  0.5035090000000 1.0
C      1  0.5226780000000  0.5245970000000  0.5389250000000 1.0
C      1  0.5206900000000  0.5199310000000  0.4605920000000 1.0
C      1  0.4802790000000  0.5215210000000  0.5015340000000 1.0
C      1  0.4808270000000  0.4896850000000  0.4797300000000 1.0
C      1  0.4809380000000  0.4875910000000  0.5171790000000 1.0
C      1  0.4740040000000  0.5708310000000  0.4472380000000 1.0
C      1  0.4755430000000  0.4178200000000  0.4654160000000 1.0
C      1  0.4742550000000  0.5097470000000  0.5871550000000 1.0
C      1  0.4806770000000  0.5745260000000  0.5516490000000 1.0
C      1  0.4778000000000  0.5081380000000  0.4090550000000 1.0
C      1  0.4773280000000  0.4187340000000  0.5389200000000 1.0
C      1  0.4777260000000  0.5133510000000  0.5129180000000 1.0
C      1  0.4756070000000  0.5025800000000  0.4834430000000 1.0
C      1  0.4733420000000  0.4841630000000  0.5040680000000 1.0
C      1  0.4722380000000  0.5726450000000  0.5397930000000 1.0
C      1  0.4700620000000  0.4981860000000  0.4163750000000 1.0
C      1  0.4704660000000  0.4307900000000  0.5434170000000 1.0
C      1  0.4985340000000  0.5275470000000  0.5751290000000 1.0
C      1  0.4981400000000  0.5495070000000  0.4363270000000 1.0
C      1  0.4983810000000  0.4182330000000  0.4906020000000 1.0
C      1  0.4518730000000  0.5153010000000  0.4995300000000 1.0
C      1  0.4533470000000  0.4884250000000  0.4785020000000 1.0
C      1  0.4535180000000  0.4906860000000  0.5179530000000 1.0
C      1  0.5698600000000  0.4636940000000  0.4728470000000 1.0
C      1  0.5707900000000  0.4951850000000  0.5452750000000 1.0
C      1  0.5696390000000  0.5416920000000  0.4824660000000 1.0
C      1  0.5475880000000  0.5145030000000  0.4738340000000 1.0
C      1  0.5472280000000  0.4686970000000  0.5004530000000 1.0
C      1  0.5491040000000  0.5169980000000  0.5270890000000 1.0
C      1  0.5198850000000  0.5373880000000  0.5726710000000 1.0
C      1  0.5200190000000  0.5419950000000  0.4318430000000 1.0
C      1  0.5203930000000  0.4175890000000  0.4990210000000 1.0
C      1  0.5335110000000  0.4974090000000  0.5783510000000 1.0
C      1  0.5323780000000  0.5682220000000  0.4621800000000 1.0
C      1  0.5320090000000  0.4315770000000  0.4602030000000 1.0
C      1  0.5264900000000  0.4740090000000  0.5773590000000 1.0
C      1  0.5252140000000  0.5798620000000  0.4825150000000 1.0
C      1  0.5221230000000  0.4446790000000  0.4413730000000 1.0
C      1  0.4900780000000  0.4252220000000  0.5557980000000 1.0
C      1  0.4903580000000  0.5867230000000  0.5357820000000 1.0
C      1  0.4898260000000  0.4895740000000  0.4065100000000 1.0
C      1  0.5476360000000  0.5486950000000  0.4493460000000 1.0
C      1  0.5482820000000  0.4304010000000  0.4831420000000 1.0
C      1  0.5483850000000  0.5193100000000  0.5687020000000 1.0
C      1  0.4659790000000  0.4755260000000  0.4640430000000 1.0
C      1  0.4666740000000  0.4823460000000  0.5361790000000 1.0
C      1  0.4658170000000  0.5418270000000  0.4964110000000 1.0
C      1  0.5345290000000  0.4926170000000  0.4839320000000 1.0
C      1  0.5356030000000  0.4885170000000  0.5153620000000 1.0
C      1  0.5352930000000  0.5189860000000  0.5036540000000 1.0
C      1  0.4824140000000  0.5032760000000  0.5340780000000 1.0
C      1  0.4797580000000  0.5277110000000  0.4804560000000 1.0
C      1  0.4809620000000  0.4679280000000  0.4849410000000 1.0
C      1  0.4881950000000  0.4513100000000  0.5424750000000 1.0
C      1  0.4876560000000  0.5607630000000  0.5214070000000 1.0
C      1  0.4863110000000  0.4877530000000  0.4349600000000 1.0
C      1  0.5514430000000  0.4760430000000  0.5507190000000 1.0
C      1  0.5502100000000  0.5564830000000  0.4951160000000 1.0
C      1  0.5493640000000  0.4665760000000  0.4544570000000 1.0
C      1  0.5427810000000  0.4389490000000  0.5434160000000 1.0
C      1  0.5409120000000  0.5687690000000  0.5308990000000 1.0
C      1  0.5415930000000  0.4919200000000  0.4264480000000 1.0
C      1  0.5134390000000  0.4325680000000  0.5626180000000 1.0
C      1  0.5121250000000  0.5889260000000  0.5241770000000 1.0
C      1  0.5122580000000  0.4789520000000  0.4113120000000 1.0
C      1  0.4637420000000  0.4603870000000  0.4632900000000 1.0
C      1  0.4630380000000  0.4889500000000  0.5494490000000 1.0
C      1  0.4619200000000  0.5493770000000  0.4842300000000 1.0
C      1  0.5210450000000  0.5150070000000  0.4748230000000 1.0
C      1  0.5208230000000  0.4762410000000  0.4973900000000 1.0
C      1  0.5222680000000  0.5155250000000  0.5275150000000 1.0
C      1  0.4249090000000  0.5207310000000  0.5147250000000 1.0
C      1  0.4283470000000  0.4996870000000  0.4656580000000 1.0
C      1  0.4279080000000  0.4814360000000  0.5066700000000 1.0
C      1  0.4634860000000  0.5423110000000  0.4265080000000 1.0
C      1  0.4630640000000  0.4173220000000  0.5005860000000 1.0
C      1  0.4656040000000  0.5427550000000  0.5732460000000 1.0
C      1  0.4914340000000  0.4562100000000  0.5158670000000 1.0
C      1  0.4912670000000  0.5374540000000  0.5309150000000 1.0
C      1  0.4897300000000  0.5074640000000  0.4533030000000 1.0
C      1  0.4836090000000  0.4417770000000  0.4633590000000 1.0
C      1  0.4796100000000  0.4976250000000  0.5668600000000 1.0
C      1  0.4788390000000  0.5590230000000  0.4676960000000 1.0
C      1  0.4985040000000  0.5683660000000  0.4795570000000 1.0
C      1  0.4960610000000  0.4391260000000  0.4547270000000 1.0
C      1  0.4994790000000  0.4828700000000  0.5696870000000 1.0
C      1  0.4217640000000  0.5072850000000  0.5115550000000 1.0
C      1  0.4226370000000  0.5046140000000  0.4978380000000 1.0
C      1  0.4245890000000  0.4905710000000  0.4955410000000 1.0
C      1  0.5260670000000  0.4231580000000  0.5358820000000 1.0
C      1  0.5281590000000  0.5688320000000  0.5535350000000 1.0
C      1  0.5257440000000  0.5074280000000  0.4166430000000 1.0
C      1  0.5043700000000  0.5330430000000  0.4865710000000 1.0
C      1  0.5048810000000  0.4692000000000  0.4765740000000 1.0
C      1  0.5061340000000  0.4956500000000  0.5363590000000 1.0
C      1  0.4710670000000  0.5313330000000  0.4682690000000 1.0
C      1  0.4721440000000  0.4558620000000  0.4877990000000 1.0
C      1  0.4731210000000  0.5120410000000  0.5427920000000 1.0
C      1  0.5792070000000  0.5057970000000  0.5157680000000 1.0
C      1  0.5807600000000  0.5106280000000  0.4902020000000 1.0
C      1  0.5772050000000  0.4873000000000  0.5008600000000 1.0
C      1  0.5082120000000  0.5539690000000  0.4619710000000 1.0
C      1  0.5091170000000  0.4377810000000  0.4745400000000 1.0
C      1  0.5094800000000  0.5048910000000  0.5661160000000 1.0
C      1  0.4609230000000  0.5010700000000  0.5236870000000 1.0
C      1  0.4572400000000  0.5220780000000  0.4877680000000 1.0
C      1  0.4590110000000  0.4774710000000  0.4862060000000 1.0
C      1  0.4969990000000  0.5075380000000  0.5992910000000 1.0
C      1  0.4972410000000  0.5812780000000  0.4430040000000 1.0
C      1  0.4980120000000  0.4073040000000  0.4583020000000 1.0
C      1  0.5474970000000  0.5251730000000  0.5552740000000 1.0
C      1  0.5463740000000  0.5343000000000  0.4514800000000 1.0
C      1  0.5477910000000  0.4393390000000  0.4945710000000 1.0
C      1  0.4640160000000  0.4581140000000  0.4346110000000 1.0
C      1  0.4644890000000  0.4646110000000  0.5670220000000 1.0
C      1  0.4629190000000  0.5751820000000  0.4963570000000 1.0
C      1  0.5121320000000  0.5315390000000  0.4559300000000 1.0
C      1  0.5126340000000  0.4438480000000  0.4959230000000 1.0
C      1  0.5137060000000  0.5224070000000  0.5505410000000 1.0
C      1  0.5216730000000  0.5725990000000  0.4706200000000 1.0
C      1  0.5207570000000  0.4366060000000  0.4530820000000 1.0
C      1  0.5228700000000  0.4878930000000  0.5775800000000 1.0
C      1  0.4542660000000  0.4691290000000  0.5594690000000 1.0
C      1  0.4522690000000  0.5665380000000  0.4976890000000 1.0
C      1  0.4537130000000  0.4627680000000  0.4417560000000 1.0
C      1  0.4980510000000  0.5177920000000  0.5448660000000 1.0
C      1  0.4963000000000  0.5293730000000  0.4630930000000 1.0
C      1  0.4970460000000  0.4521100000000  0.4928470000000 1.0
C      1  0.5187880000000  0.5006370000000  0.5289240000000 1.0
C      1  0.5172020000000  0.5235720000000  0.4868890000000 1.0
C      1  0.5169420000000  0.4719780000000  0.4836740000000 1.0
C      1  0.4906790000000  0.4679070000000  0.4101370000000 1.0
C      1  0.4919000000000  0.4391100000000  0.5726110000000 1.0
C      1  0.4903220000000  0.5935970000000  0.5148800000000 1.0
C      1  0.5192610000000  0.4960260000000  0.4421530000000 1.0
C      1  0.5206040000000  0.4510990000000  0.5322380000000 1.0
C      1  0.5197200000000  0.5521370000000  0.5274670000000 1.0
C      1  0.4817260000000  0.5350240000000  0.4578990000000 1.0
C      1  0.4825980000000  0.4450770000000  0.4904110000000 1.0
C      1  0.4831000000000  0.5191090000000  0.5519520000000 1.0
C      1  0.4302670000000  0.4696740000000  0.4864460000000 1.0
C      1  0.4299320000000  0.5069290000000  0.5325800000000 1.0
C      1  0.4287780000000  0.5226690000000  0.4788070000000 1.0
C      1  0.4834490000000  0.5549750000000  0.4926920000000 1.0
C      1  0.4848900000000  0.4666510000000  0.4543440000000 1.0
C      1  0.4846660000000  0.4788190000000  0.5506800000000 1.0
C      1  0.4971440000000  0.5152290000000  0.4630590000000 1.0
C      1  0.4982050000000  0.4609720000000  0.5037560000000 1.0
C      1  0.4986270000000  0.5250400000000  0.5327970000000 1.0
C      1  0.5450940000000  0.5107410000000  0.5499040000000 1.0
C      1  0.5436410000000  0.5372140000000  0.4663760000000 1.0
C      1  0.5446300000000  0.4507470000000  0.4848070000000 1.0
C      1  0.5315510000000  0.5775310000000  0.5258900000000 1.0
C      1  0.5319250000000  0.4843770000000  0.4205110000000 1.0
C      1  0.5332200000000  0.4378630000000  0.5530080000000 1.0
C      1  0.4916390000000  0.5815230000000  0.4818440000000 1.0
C      1  0.4843220000000  0.4444630000000  0.4353680000000 1.0
C      1  0.4929180000000  0.4738690000000  0.5796860000000 1.0
C      1  0.4504970000000  0.4930810000000  0.5671720000000 1.0
C      1  0.4496570000000  0.5628270000000  0.4716260000000 1.0
C      1  0.4528710000000  0.4425250000000  0.4573530000000 1.0
C      1  0.5372310000000  0.4323260000000  0.5312720000000 1.0
C      1  0.5364630000000  0.5613210000000  0.5434580000000 1.0
C      1  0.5364970000000  0.5060560000000  0.4269060000000 1.0
C      1  0.5000250000000  0.4232030000000  0.5058210000000 1.0
C      1  0.4997430000000  0.5370560000000  0.5636070000000 1.0
C      1  0.4996620000000  0.5337160000000  0.4324870000000 1.0
C      1  0.4756170000000  0.4879410000000  0.4431580000000 1.0
C      1  0.4774600000000  0.4583280000000  0.5381520000000 1.0
C      1  0.4760780000000  0.5546020000000  0.5176250000000 1.0
C      1  0.5267990000000  0.5364480000000  0.4859530000000 1.0
C      1  0.5272810000000  0.4666530000000  0.4751920000000 1.0
C      1  0.5285740000000  0.4945120000000  0.5396060000000 1.0
C      1  0.5418820000000  0.4196950000000  0.4781610000000 1.0
C      1  0.5419100000000  0.5194120000000  0.5804730000000 1.0
C      1  0.5418320000000  0.5587960000000  0.4424890000000 1.0
C      1  0.5293880000000  0.5403280000000  0.4716890000000 1.0
C      1  0.5301980000000  0.4531000000000  0.4804970000000 1.0
C      1  0.5310880000000  0.5045660000000  0.5502190000000 1.0
C      1  0.4990800000000  0.4836330000000  0.4351390000000 1.0
C      1  0.5009440000000  0.4534160000000  0.5465320000000 1.0
C      1  0.5002970000000  0.5634840000000  0.5174810000000 1.0
C      1  0.5585650000000  0.5288130000000  0.5108590000000 1.0
C      1  0.5579420000000  0.4947680000000  0.4717550000000 1.0
C      1  0.5581100000000  0.4757410000000  0.5185860000000 1.0
C      1  0.5108510000000  0.4697540000000  0.5208760000000 1.0
C      1  0.5100750000000  0.5344000000000  0.5153840000000 1.0
C      1  0.5094740000000  0.4956470000000  0.4633560000000 1.0
C      1  0.4610460000000  0.5513600000000  0.4372530000000 1.0
C      1  0.4614780000000  0.4202490000000  0.4867140000000 1.0
C      1  0.4619340000000  0.5288940000000  0.5751350000000 1.0
C      1  0.5575310000000  0.5203480000000  0.4976340000000 1.0
C      1  0.5571080000000  0.4865350000000  0.4845630000000 1.0
C      1  0.5587090000000  0.4906980000000  0.5180840000000 1.0
C      1  0.4568210000000  0.5160660000000  0.4267960000000 1.0
C      1  0.4567150000000  0.4332860000000  0.5217130000000 1.0
C      1  0.4590580000000  0.5546910000000  0.5510480000000 1.0
C      1  0.4788600000000  0.5329120000000  0.5502990000000 1.0
C      1  0.4774670000000  0.5266350000000  0.4469210000000 1.0
C      1  0.4788010000000  0.4407430000000  0.5034460000000 1.0
C      1  0.5304220000000  0.4706450000000  0.4230510000000 1.0
C      1  0.5324640000000  0.4464540000000  0.5638890000000 1.0
C      1  0.5314830000000  0.5830020000000  0.5129040000000 1.0
C      1  0.5202250000000  0.5483690000000  0.4925750000000 1.0
C      1  0.5210690000000  0.4671520000000  0.4612730000000 1.0
C      1  0.5216650000000  0.4825500000000  0.5459670000000 1.0
C      1  0.5489190000000  0.5512990000000  0.4635830000000 1.0
C      1  0.5492980000000  0.4413550000000  0.4736080000000 1.0
C      1  0.5501950000000  0.5058140000000  0.5635230000000 1.0
C      1  0.4774880000000  0.4331230000000  0.5559950000000 1.0
C      1  0.4777900000000  0.5819460000000  0.5300490000000 1.0
C      1  0.4766410000000  0.4858700000000  0.4122550000000 1.0
C      1  0.5157790000000  0.5715660000000  0.5587620000000 1.0
C      1  0.5054510000000  0.5264030000000  0.4176640000000 1.0
C      1  0.5051220000000  0.4147800000000  0.5194310000000 1.0
C      1  0.5420170000000  0.4745390000000  0.5378490000000 1.0
C      1  0.5410750000000  0.5462880000000  0.5032020000000 1.0
C      1  0.5408490000000  0.4791260000000  0.4601110000000 1.0
C      1  0.4750810000000  0.4861760000000  0.5586990000000 1.0
C      1  0.4742610000000  0.5583600000000  0.4818440000000 1.0
C      1  0.4768350000000  0.4548630000000  0.4573200000000 1.0
C      1  0.5189780000000  0.5011320000000  0.5023050000000 1.0
END
