TITL C-616442-5639-33 11.5086742011887 1000000 -1615.32852038197 0 0 240 (C1) n - 1
REM
REM in /scratch/bkarasulu/Only-C240/Try3-MINAMP_3A
REM
REM
REM
REM
REM
REM ./C.cell (861c01eed278495e92615705e35c7759)
REM
REM compiler GCC version 9.2.1 20190827 (Red Hat 9.2.1-1)
REM options -cpp -mtune=generic -march=x86-64 -g -O0 -fpre-include=/usr/include/finclude/math-vector-fortran.h
REM seed 1893930023 71658314 1710250278 1972477104 -126000936 -1799202149 556761645 -1505344018 -732372209 -247494750 468880063 -1823416158 -1850320153 732774338 859699461 389258645 -1152964500 526877672 -1759568409 738523633 1046512477 -1599448589 698718844 -843580 996321773 2035439475 639990933 -233892714 -1911023065 -2027657666 -843837195 -1830910009 832075015
REM
CELL 1.54180  100.00000  100.00000  100.00000   90.00000   90.00000   90.00000
LATT -1
SFAC C  
C      1  0.4517970000000  0.5641740000000  0.5049280000000 1.0
C      1  0.5482610000000  0.4365710000000  0.5027460000000 1.0
C      1  0.4513190000000  0.4371440000000  0.4975390000000 1.0
C      1  0.5464590000000  0.5645160000000  0.4972860000000 1.0
C      1  0.5086480000000  0.4263590000000  0.5304440000000 1.0
C      1  0.4917330000000  0.5733560000000  0.5317710000000 1.0
C      1  0.5070700000000  0.5710950000000  0.4703620000000 1.0
C      1  0.4913930000000  0.4272490000000  0.4705650000000 1.0
C      1  0.5812410000000  0.5077520000000  0.4984940000000 1.0
C      1  0.4180760000000  0.4934260000000  0.4987450000000 1.0
C      1  0.5814190000000  0.4940090000000  0.5007520000000 1.0
C      1  0.4182230000000  0.5071400000000  0.5009830000000 1.0
C      1  0.5455610000000  0.5431730000000  0.5321180000000 1.0
C      1  0.4532650000000  0.4546980000000  0.5322790000000 1.0
C      1  0.5459150000000  0.4556750000000  0.4679140000000 1.0
C      1  0.4522360000000  0.5486440000000  0.4695870000000 1.0
C      1  0.4352590000000  0.4853520000000  0.4797510000000 1.0
C      1  0.5644640000000  0.5159780000000  0.4789620000000 1.0
C      1  0.4350500000000  0.5155240000000  0.5203730000000 1.0
C      1  0.5648220000000  0.4854040000000  0.5202700000000 1.0
C      1  0.4574580000000  0.5360060000000  0.4901550000000 1.0
C      1  0.5421560000000  0.4659440000000  0.4899820000000 1.0
C      1  0.4571830000000  0.4649830000000  0.5103880000000 1.0
C      1  0.5417370000000  0.5343810000000  0.5094690000000 1.0
C      1  0.5610190000000  0.4865620000000  0.5445410000000 1.0
C      1  0.4384530000000  0.5142870000000  0.5443890000000 1.0
C      1  0.5608560000000  0.5142930000000  0.4548680000000 1.0
C      1  0.4400810000000  0.4871680000000  0.4558150000000 1.0
C      1  0.4871540000000  0.4741670000000  0.4728360000000 1.0
C      1  0.5135240000000  0.5288950000000  0.4698940000000 1.0
C      1  0.4870270000000  0.5275710000000  0.5287760000000 1.0
C      1  0.5136460000000  0.4722560000000  0.5279230000000 1.0
C      1  0.4778770000000  0.5458010000000  0.4454940000000 1.0
C      1  0.5237270000000  0.4535720000000  0.4446630000000 1.0
C      1  0.4758300000000  0.4529570000000  0.5556940000000 1.0
C      1  0.5238680000000  0.5452220000000  0.5558950000000 1.0
C      1  0.4751980000000  0.4648950000000  0.4353270000000 1.0
C      1  0.5264620000000  0.5307430000000  0.4312410000000 1.0
C      1  0.4740520000000  0.5312030000000  0.5668360000000 1.0
C      1  0.5260000000000  0.4669260000000  0.5661780000000 1.0
C      1  0.4797340000000  0.4753810000000  0.4281690000000 1.0
C      1  0.5212000000000  0.5199720000000  0.4252120000000 1.0
C      1  0.4788720000000  0.5204360000000  0.5732420000000 1.0
C      1  0.5212800000000  0.4777300000000  0.5726660000000 1.0
C      1  0.5597310000000  0.5487130000000  0.5101710000000 1.0
C      1  0.4382530000000  0.4517320000000  0.5104260000000 1.0
C      1  0.5608820000000  0.4522870000000  0.4895330000000 1.0
C      1  0.4384980000000  0.5493480000000  0.4916310000000 1.0
C      1  0.4579500000000  0.5469400000000  0.4586120000000 1.0
C      1  0.5415300000000  0.4596480000000  0.4568770000000 1.0
C      1  0.4580720000000  0.4585500000000  0.5431720000000 1.0
C      1  0.5415090000000  0.5387150000000  0.5431280000000 1.0
C      1  0.5189200000000  0.4953850000000  0.5536870000000 1.0
C      1  0.4813360000000  0.5036260000000  0.5537140000000 1.0
C      1  0.5185630000000  0.5037180000000  0.4452320000000 1.0
C      1  0.4819220000000  0.4948900000000  0.4457010000000 1.0
C      1  0.5068470000000  0.4503630000000  0.5000700000000 1.0
C      1  0.4932390000000  0.5494460000000  0.5008800000000 1.0
C      1  0.5057940000000  0.5493340000000  0.5014950000000 1.0
C      1  0.4943380000000  0.4508230000000  0.5012340000000 1.0
C      1  0.4986750000000  0.4298750000000  0.5385390000000 1.0
C      1  0.5013890000000  0.5696000000000  0.5401110000000 1.0
C      1  0.5018070000000  0.5663210000000  0.4592330000000 1.0
C      1  0.5014430000000  0.4303670000000  0.4624280000000 1.0
C      1  0.5571700000000  0.5157960000000  0.5294430000000 1.0
C      1  0.4417320000000  0.4844730000000  0.5303730000000 1.0
C      1  0.5576780000000  0.4849800000000  0.4697110000000 1.0
C      1  0.4428610000000  0.5172120000000  0.4691640000000 1.0
C      1  0.4756660000000  0.5616210000000  0.5150490000000 1.0
C      1  0.5247640000000  0.4382540000000  0.5136980000000 1.0
C      1  0.4759850000000  0.4397970000000  0.4874230000000 1.0
C      1  0.5227680000000  0.5618800000000  0.4878740000000 1.0
C      1  0.5643770000000  0.4643790000000  0.4981060000000 1.0
C      1  0.4354360000000  0.5367200000000  0.4990870000000 1.0
C      1  0.5636080000000  0.5370020000000  0.5011620000000 1.0
C      1  0.4351950000000  0.4638000000000  0.5016920000000 1.0
C      1  0.4495610000000  0.5452280000000  0.4825320000000 1.0
C      1  0.5495530000000  0.4574170000000  0.4811880000000 1.0
C      1  0.4496430000000  0.4564270000000  0.5188900000000 1.0
C      1  0.5488670000000  0.5427630000000  0.5186120000000 1.0
C      1  0.5013000000000  0.4947850000000  0.4749100000000 1.0
C      1  0.4994560000000  0.5089220000000  0.4739890000000 1.0
C      1  0.5008200000000  0.5065750000000  0.5253990000000 1.0
C      1  0.4985490000000  0.4924710000000  0.5258290000000 1.0
C      1  0.4829990000000  0.5683070000000  0.4918810000000 1.0
C      1  0.5167380000000  0.4317240000000  0.4903590000000 1.0
C      1  0.4841090000000  0.4320950000000  0.5104940000000 1.0
C      1  0.5161950000000  0.5680300000000  0.5115430000000 1.0
C      1  0.5236970000000  0.5497040000000  0.4799190000000 1.0
C      1  0.4766270000000  0.4521440000000  0.4792810000000 1.0
C      1  0.5252990000000  0.4505530000000  0.5220440000000 1.0
C      1  0.4753790000000  0.5493990000000  0.5234800000000 1.0
C      1  0.4814730000000  0.5066490000000  0.5403430000000 1.0
C      1  0.5182360000000  0.4930920000000  0.5402230000000 1.0
C      1  0.4824090000000  0.4946790000000  0.4593900000000 1.0
C      1  0.5183170000000  0.5069380000000  0.4585450000000 1.0
C      1  0.5532510000000  0.5233840000000  0.4744090000000 1.0
C      1  0.4469170000000  0.4783900000000  0.4757070000000 1.0
C      1  0.5538480000000  0.4776240000000  0.5247270000000 1.0
C      1  0.4463630000000  0.5227770000000  0.5247240000000 1.0
C      1  0.5115260000000  0.4929720000000  0.4360990000000 1.0
C      1  0.4888090000000  0.5040630000000  0.4346220000000 1.0
C      1  0.5117080000000  0.5055130000000  0.5636910000000 1.0
C      1  0.4885710000000  0.4929150000000  0.5628870000000 1.0
C      1  0.5102010000000  0.5162880000000  0.4675180000000 1.0
C      1  0.4902520000000  0.4866660000000  0.4698520000000 1.0
C      1  0.5095670000000  0.4844580000000  0.5309700000000 1.0
C      1  0.4902380000000  0.5149150000000  0.5310450000000 1.0
C      1  0.5327920000000  0.4638740000000  0.4466150000000 1.0
C      1  0.4655870000000  0.5429010000000  0.4482990000000 1.0
C      1  0.5327230000000  0.5348300000000  0.5535600000000 1.0
C      1  0.4669020000000  0.4632720000000  0.5532080000000 1.0
C      1  0.5587260000000  0.4403640000000  0.4953940000000 1.0
C      1  0.4407450000000  0.5609160000000  0.4981630000000 1.0
C      1  0.5568920000000  0.5606170000000  0.5045300000000 1.0
C      1  0.4400470000000  0.4396060000000  0.5046170000000 1.0
C      1  0.5668190000000  0.5031490000000  0.4539770000000 1.0
C      1  0.4339840000000  0.4982130000000  0.4545950000000 1.0
C      1  0.5667360000000  0.4978540000000  0.5454010000000 1.0
C      1  0.4326190000000  0.5031030000000  0.5455570000000 1.0
C      1  0.5459340000000  0.5284930000000  0.4849780000000 1.0
C      1  0.4534060000000  0.4729060000000  0.4866060000000 1.0
C      1  0.5466010000000  0.4728730000000  0.5140070000000 1.0
C      1  0.4537030000000  0.5272250000000  0.5138380000000 1.0
C      1  0.5447340000000  0.5084770000000  0.5463670000000 1.0
C      1  0.4547610000000  0.4920560000000  0.5467650000000 1.0
C      1  0.5448860000000  0.4918360000000  0.4528440000000 1.0
C      1  0.4558470000000  0.5094210000000  0.4518380000000 1.0
C      1  0.4783110000000  0.5226330000000  0.4829160000000 1.0
C      1  0.5222920000000  0.4814460000000  0.4846870000000 1.0
C      1  0.4775340000000  0.4788330000000  0.5170000000000 1.0
C      1  0.5217060000000  0.5192690000000  0.5147760000000 1.0
C      1  0.4730220000000  0.5066150000000  0.5745050000000 1.0
C      1  0.5273100000000  0.4914470000000  0.5741850000000 1.0
C      1  0.4732360000000  0.4886750000000  0.4255520000000 1.0
C      1  0.5271390000000  0.5061250000000  0.4242730000000 1.0
C      1  0.4901780000000  0.5496840000000  0.4438450000000 1.0
C      1  0.5163240000000  0.4436460000000  0.4463240000000 1.0
C      1  0.4832990000000  0.4430280000000  0.5543290000000 1.0
C      1  0.5163320000000  0.5551350000000  0.5551310000000 1.0
C      1  0.5436680000000  0.5156540000000  0.5244550000000 1.0
C      1  0.4552090000000  0.4844650000000  0.5249530000000 1.0
C      1  0.5441540000000  0.4848880000000  0.4748420000000 1.0
C      1  0.4566980000000  0.5183350000000  0.4733780000000 1.0
C      1  0.5423840000000  0.4708810000000  0.5467950000000 1.0
C      1  0.4578300000000  0.5288410000000  0.5471130000000 1.0
C      1  0.5415700000000  0.5291010000000  0.4520660000000 1.0
C      1  0.4587000000000  0.4710660000000  0.4540480000000 1.0
C      1  0.5734000000000  0.5274650000000  0.4994510000000 1.0
C      1  0.4256990000000  0.4736930000000  0.4998950000000 1.0
C      1  0.5739470000000  0.4741450000000  0.4997740000000 1.0
C      1  0.4259380000000  0.5268500000000  0.5001350000000 1.0
C      1  0.5127670000000  0.5716990000000  0.4814740000000 1.0
C      1  0.4838220000000  0.4291870000000  0.4801850000000 1.0
C      1  0.5162170000000  0.4281250000000  0.5207940000000 1.0
C      1  0.4844930000000  0.5718010000000  0.5218230000000 1.0
C      1  0.5236400000000  0.5037380000000  0.5323180000000 1.0
C      1  0.4756360000000  0.4961700000000  0.5324320000000 1.0
C      1  0.5239260000000  0.4966910000000  0.4669570000000 1.0
C      1  0.4771280000000  0.5064660000000  0.4658590000000 1.0
C      1  0.5173410000000  0.4803650000000  0.4364020000000 1.0
C      1  0.4816390000000  0.5159020000000  0.4322570000000 1.0
C      1  0.5173770000000  0.5181490000000  0.5640480000000 1.0
C      1  0.4828390000000  0.4803130000000  0.5624890000000 1.0
C      1  0.5314850000000  0.5016970000000  0.4367960000000 1.0
C      1  0.4689580000000  0.4947860000000  0.4374560000000 1.0
C      1  0.5316740000000  0.4968790000000  0.5619930000000 1.0
C      1  0.4685290000000  0.5016930000000  0.5622470000000 1.0
C      1  0.4866720000000  0.5013680000000  0.5749340000000 1.0
C      1  0.5137290000000  0.4966520000000  0.5751980000000 1.0
C      1  0.4867300000000  0.4941490000000  0.4239430000000 1.0
C      1  0.5135460000000  0.5009080000000  0.4238500000000 1.0
C      1  0.4919320000000  0.5145260000000  0.5754660000000 1.0
C      1  0.5082590000000  0.4836050000000  0.5751450000000 1.0
C      1  0.4924910000000  0.4812510000000  0.4247500000000 1.0
C      1  0.5081730000000  0.5140300000000  0.4231030000000 1.0
C      1  0.5385550000000  0.4897130000000  0.4408290000000 1.0
C      1  0.4613760000000  0.5069510000000  0.4393580000000 1.0
C      1  0.5385900000000  0.5092140000000  0.5586600000000 1.0
C      1  0.4614810000000  0.4895820000000  0.5584960000000 1.0
C      1  0.5300370000000  0.5217590000000  0.5599740000000 1.0
C      1  0.4700640000000  0.4767520000000  0.5586680000000 1.0
C      1  0.5301150000000  0.4769510000000  0.4402680000000 1.0
C      1  0.4692520000000  0.5186580000000  0.4345030000000 1.0
C      1  0.4648990000000  0.5258180000000  0.4831310000000 1.0
C      1  0.5353970000000  0.4773630000000  0.4842250000000 1.0
C      1  0.4641100000000  0.4760610000000  0.5165000000000 1.0
C      1  0.5349370000000  0.5229190000000  0.5149590000000 1.0
C      1  0.4835910000000  0.4419450000000  0.5012860000000 1.0
C      1  0.5163240000000  0.5585690000000  0.5018920000000 1.0
C      1  0.4825340000000  0.5585020000000  0.5010400000000 1.0
C      1  0.5173560000000  0.4412060000000  0.4999260000000 1.0
C      1  0.4495750000000  0.4676840000000  0.4982620000000 1.0
C      1  0.5493460000000  0.5329220000000  0.4971140000000 1.0
C      1  0.4501270000000  0.5326040000000  0.5022010000000 1.0
C      1  0.5499990000000  0.4681100000000  0.5020660000000 1.0
C      1  0.4844310000000  0.4885890000000  0.5240360000000 1.0
C      1  0.5149090000000  0.5103170000000  0.5228840000000 1.0
C      1  0.4853640000000  0.5133380000000  0.4754800000000 1.0
C      1  0.5154020000000  0.4905890000000  0.4768310000000 1.0
C      1  0.5368720000000  0.4918180000000  0.4648860000000 1.0
C      1  0.4641790000000  0.5112840000000  0.4633280000000 1.0
C      1  0.5365470000000  0.5087550000000  0.5344750000000 1.0
C      1  0.4625020000000  0.4919020000000  0.5345540000000 1.0
C      1  0.5346250000000  0.5309130000000  0.4415330000000 1.0
C      1  0.4666110000000  0.4667780000000  0.4452420000000 1.0
C      1  0.5345580000000  0.4676710000000  0.5561930000000 1.0
C      1  0.4656060000000  0.5313940000000  0.5567970000000 1.0
C      1  0.5839370000000  0.5197400000000  0.5059420000000 1.0
C      1  0.4150260000000  0.4814150000000  0.5060560000000 1.0
C      1  0.5843770000000  0.4820540000000  0.4933530000000 1.0
C      1  0.4156900000000  0.5190830000000  0.4933610000000 1.0
C      1  0.5189770000000  0.4608790000000  0.5251340000000 1.0
C      1  0.4819300000000  0.5391360000000  0.5264090000000 1.0
C      1  0.5182570000000  0.5399500000000  0.4745170000000 1.0
C      1  0.4824530000000  0.4625680000000  0.4758100000000 1.0
C      1  0.5727470000000  0.4853910000000  0.5098780000000 1.0
C      1  0.4270000000000  0.5155620000000  0.5100680000000 1.0
C      1  0.5723940000000  0.5162090000000  0.4893580000000 1.0
C      1  0.4269620000000  0.4849610000000  0.4898680000000 1.0
C      1  0.5519400000000  0.4772990000000  0.5392120000000 1.0
C      1  0.4481460000000  0.5230110000000  0.5392290000000 1.0
C      1  0.5514220000000  0.5232970000000  0.4599030000000 1.0
C      1  0.4492420000000  0.4781250000000  0.4612880000000 1.0
C      1  0.4407470000000  0.4920900000000  0.5420650000000 1.0
C      1  0.5584430000000  0.5085860000000  0.5413410000000 1.0
C      1  0.4421570000000  0.5094370000000  0.4573920000000 1.0
C      1  0.5587480000000  0.4922150000000  0.4577940000000 1.0
C      1  0.4619040000000  0.4361880000000  0.4912190000000 1.0
C      1  0.5366960000000  0.5680750000000  0.4901560000000 1.0
C      1  0.4618050000000  0.5670500000000  0.5117890000000 1.0
C      1  0.5386340000000  0.4330190000000  0.5099120000000 1.0
C      1  0.5092060000000  0.5637650000000  0.5478640000000 1.0
C      1  0.4904080000000  0.4351500000000  0.5462330000000 1.0
C      1  0.5094290000000  0.4356460000000  0.4544380000000 1.0
C      1  0.4974550000000  0.5583710000000  0.4503920000000 1.0
C      1  0.5158520000000  0.4223820000000  0.4816310000000 1.0
C      1  0.4841370000000  0.5771560000000  0.4827710000000 1.0
C      1  0.5157390000000  0.5771690000000  0.5205140000000 1.0
C      1  0.4845190000000  0.4222790000000  0.5187140000000 1.0
END
