TITL C-616442-5639-70 -28.0573751980429 1000000 -1686.25893059567 0 0 240 (S12) n - 1
REM
REM in /scratch/bkarasulu/Only-C240/Try3-MINAMP_3A
REM
REM
REM
REM
REM
REM ./C.cell (861c01eed278495e92615705e35c7759)
REM
REM compiler GCC version 9.2.1 20190827 (Red Hat 9.2.1-1)
REM options -cpp -mtune=generic -march=x86-64 -g -O0 -fpre-include=/usr/include/finclude/math-vector-fortran.h
REM seed 2005054041 2025997658 -2098553150 1834799852 423134214 -2126240539 -1353780799 1378542495 1499071124 2085556935 -1557906248 1080726529 1113705795 1338402492 478054383 -949708250 606544543 -1709320732 2001011027 1007155299 -1429651610 -1610226622 -686888479 -480513830 1011025545 -1537934788 2052666296 669201052 -651762535 -1132252326 -148639733 1524791032 -633561588
REM
CELL 1.54180  100.00000  100.00000  100.00000   90.00000   90.00000   90.00000
LATT -1
SFAC C  
C      1  0.5633800000000  0.4442950000000  0.4697880000000 1.0
C      1  0.5699720000000  0.5557340000000  0.5055210000000 1.0
C      1  0.5578590000000  0.4442930000000  0.5397720000000 1.0
C      1  0.5301990000000  0.5557250000000  0.5633680000000 1.0
C      1  0.4944920000000  0.4442790000000  0.5699830000000 1.0
C      1  0.4602160000000  0.5557100000000  0.5578480000000 1.0
C      1  0.4366440000000  0.4442670000000  0.5302110000000 1.0
C      1  0.4300050000000  0.5557040000000  0.4944800000000 1.0
C      1  0.4421640000000  0.4442690000000  0.4602270000000 1.0
C      1  0.4697770000000  0.5557130000000  0.4366330000000 1.0
C      1  0.5055320000000  0.4442830000000  0.4300160000000 1.0
C      1  0.5397610000000  0.5557280000000  0.4421530000000 1.0
C      1  0.4433000000000  0.5074440000000  0.5022560000000 1.0
C      1  0.4497720000000  0.4925330000000  0.4736050000000 1.0
C      1  0.4696950000000  0.5074500000000  0.4520260000000 1.0
C      1  0.4977450000000  0.4925440000000  0.4433020000000 1.0
C      1  0.5263930000000  0.5074630000000  0.4497700000000 1.0
C      1  0.5479750000000  0.4925540000000  0.4696970000000 1.0
C      1  0.5566960000000  0.5074680000000  0.4977440000000 1.0
C      1  0.5502320000000  0.4925540000000  0.5263950000000 1.0
C      1  0.5303010000000  0.5074620000000  0.5479740000000 1.0
C      1  0.5022580000000  0.4925430000000  0.5566980000000 1.0
C      1  0.4736040000000  0.5074500000000  0.5502300000000 1.0
C      1  0.4520280000000  0.4925330000000  0.5303030000000 1.0
C      1  0.4564510000000  0.4876180000000  0.4618180000000 1.0
C      1  0.4813710000000  0.5123700000000  0.4451580000000 1.0
C      1  0.5112930000000  0.4876300000000  0.4431920000000 1.0
C      1  0.5381790000000  0.5123820000000  0.4564480000000 1.0
C      1  0.5548450000000  0.4876390000000  0.4813740000000 1.0
C      1  0.5568050000000  0.5123850000000  0.5112910000000 1.0
C      1  0.5435550000000  0.4876360000000  0.5381820000000 1.0
C      1  0.5186230000000  0.5123760000000  0.5548430000000 1.0
C      1  0.4887120000000  0.4876240000000  0.5568080000000 1.0
C      1  0.4618150000000  0.5123650000000  0.5435520000000 1.0
C      1  0.4451600000000  0.4876150000000  0.5186260000000 1.0
C      1  0.4431890000000  0.5123610000000  0.4887090000000 1.0
C      1  0.4961660000000  0.5288930000000  0.4386940000000 1.0
C      1  0.5273450000000  0.4711130000000  0.4449930000000 1.0
C      1  0.5511730000000  0.5289040000000  0.4660330000000 1.0
C      1  0.5613120000000  0.4711200000000  0.4961720000000 1.0
C      1  0.5550000000000  0.5289050000000  0.5273390000000 1.0
C      1  0.5339740000000  0.4711130000000  0.5511790000000 1.0
C      1  0.5038210000000  0.5288930000000  0.5613070000000 1.0
C      1  0.4726680000000  0.4711000000000  0.5550060000000 1.0
C      1  0.4488150000000  0.5288820000000  0.5339680000000 1.0
C      1  0.4387000000000  0.4710940000000  0.5038270000000 1.0
C      1  0.4449870000000  0.5288820000000  0.4726620000000 1.0
C      1  0.4660380000000  0.4711000000000  0.4488210000000 1.0
C      1  0.5098750000000  0.4228130000000  0.5267490000000 1.0
C      1  0.4951460000000  0.5771870000000  0.5280960000000 1.0
C      1  0.4817800000000  0.4228070000000  0.5219120000000 1.0
C      1  0.4732340000000  0.5771830000000  0.5098590000000 1.0
C      1  0.4719210000000  0.4228060000000  0.4951620000000 1.0
C      1  0.4780710000000  0.5771840000000  0.4817640000000 1.0
C      1  0.4901580000000  0.4228100000000  0.4732490000000 1.0
C      1  0.5048210000000  0.5771900000000  0.4719060000000 1.0
C      1  0.5182530000000  0.4228160000000  0.4780870000000 1.0
C      1  0.5267330000000  0.5771940000000  0.4901420000000 1.0
C      1  0.5281120000000  0.4228170000000  0.5048360000000 1.0
C      1  0.5218960000000  0.5771930000000  0.5182380000000 1.0
C      1  0.5461940000000  0.5064890000000  0.4667170000000 1.0
C      1  0.5566490000000  0.4935340000000  0.4942740000000 1.0
C      1  0.5519200000000  0.5064890000000  0.5233650000000 1.0
C      1  0.5332840000000  0.4935280000000  0.5461950000000 1.0
C      1  0.5057250000000  0.5064790000000  0.5566470000000 1.0
C      1  0.4766370000000  0.4935160000000  0.5519210000000 1.0
C      1  0.4538040000000  0.5064680000000  0.5332830000000 1.0
C      1  0.4433540000000  0.4935090000000  0.5057260000000 1.0
C      1  0.4480770000000  0.5064680000000  0.4766360000000 1.0
C      1  0.4667180000000  0.4935150000000  0.4538050000000 1.0
C      1  0.4942720000000  0.5064780000000  0.4433530000000 1.0
C      1  0.5233660000000  0.4935270000000  0.4480790000000 1.0
C      1  0.4924040000000  0.5614210000000  0.4396340000000 1.0
C      1  0.5236290000000  0.4385840000000  0.4439290000000 1.0
C      1  0.5484740000000  0.5614320000000  0.4632500000000 1.0
C      1  0.5603800000000  0.4385910000000  0.4924160000000 1.0
C      1  0.5560580000000  0.5614330000000  0.5236170000000 1.0
C      1  0.5367640000000  0.4385860000000  0.5484870000000 1.0
C      1  0.5075700000000  0.5614230000000  0.5603670000000 1.0
C      1  0.4763970000000  0.4385730000000  0.5560700000000 1.0
C      1  0.4514990000000  0.5614110000000  0.5367510000000 1.0
C      1  0.4396460000000  0.4385650000000  0.5075830000000 1.0
C      1  0.4439160000000  0.5614100000000  0.4763850000000 1.0
C      1  0.4632620000000  0.4385710000000  0.4515120000000 1.0
C      1  0.4673800000000  0.4824810000000  0.5485660000000 1.0
C      1  0.4474600000000  0.5175000000000  0.5257480000000 1.0
C      1  0.4416320000000  0.4824760000000  0.4960300000000 1.0
C      1  0.4514300000000  0.5175010000000  0.4673760000000 1.0
C      1  0.4742560000000  0.4824840000000  0.4474630000000 1.0
C      1  0.5039660000000  0.5175130000000  0.4416280000000 1.0
C      1  0.5326280000000  0.4824960000000  0.4514330000000 1.0
C      1  0.5525330000000  0.5175230000000  0.4742530000000 1.0
C      1  0.5583760000000  0.4825010000000  0.5039700000000 1.0
C      1  0.5485630000000  0.5175210000000  0.5326240000000 1.0
C      1  0.5257510000000  0.4824940000000  0.5525360000000 1.0
C      1  0.4960260000000  0.5175100000000  0.5583720000000 1.0
C      1  0.4871420000000  0.4833940000000  0.4435540000000 1.0
C      1  0.5170810000000  0.5166080000000  0.4446860000000 1.0
C      1  0.5424570000000  0.4834050000000  0.4606390000000 1.0
C      1  0.5564430000000  0.5166160000000  0.4871390000000 1.0
C      1  0.5553180000000  0.4834080000000  0.5170850000000 1.0
C      1  0.5393580000000  0.5166120000000  0.5424530000000 1.0
C      1  0.5128650000000  0.4833980000000  0.5564460000000 1.0
C      1  0.4829110000000  0.5166000000000  0.5553150000000 1.0
C      1  0.4575500000000  0.4833870000000  0.5393610000000 1.0
C      1  0.4435500000000  0.5165920000000  0.5128610000000 1.0
C      1  0.4446890000000  0.4833840000000  0.4829150000000 1.0
C      1  0.4606350000000  0.5165960000000  0.4575470000000 1.0
C      1  0.5473610000000  0.5517570000000  0.4526770000000 1.0
C      1  0.5646980000000  0.4482670000000  0.4827020000000 1.0
C      1  0.5646580000000  0.5517600000000  0.5173640000000 1.0
C      1  0.5473340000000  0.4482630000000  0.5473720000000 1.0
C      1  0.5172860000000  0.5517490000000  0.5646880000000 1.0
C      1  0.4826470000000  0.4482490000000  0.5646690000000 1.0
C      1  0.4526170000000  0.5517360000000  0.5473240000000 1.0
C      1  0.4353240000000  0.4482400000000  0.5172970000000 1.0
C      1  0.4353200000000  0.5517330000000  0.4826370000000 1.0
C      1  0.4526880000000  0.4482440000000  0.4526270000000 1.0
C      1  0.4826920000000  0.5517430000000  0.4353130000000 1.0
C      1  0.5173750000000  0.4482580000000  0.4353300000000 1.0
C      1  0.4663140000000  0.4308160000000  0.4630360000000 1.0
C      1  0.4892810000000  0.5691750000000  0.4511390000000 1.0
C      1  0.5151760000000  0.4308270000000  0.4523320000000 1.0
C      1  0.5369480000000  0.5691850000000  0.4663000000000 1.0
C      1  0.5488760000000  0.4308330000000  0.4892950000000 1.0
C      1  0.5476520000000  0.5691870000000  0.5151620000000 1.0
C      1  0.5337150000000  0.4308300000000  0.5369620000000 1.0
C      1  0.5106890000000  0.5691790000000  0.5488620000000 1.0
C      1  0.4848540000000  0.4308190000000  0.5476660000000 1.0
C      1  0.4630220000000  0.5691690000000  0.5337010000000 1.0
C      1  0.4511530000000  0.4308120000000  0.5107030000000 1.0
C      1  0.4523180000000  0.5691670000000  0.4848400000000 1.0
C      1  0.4615320000000  0.4260440000000  0.4864860000000 1.0
C      1  0.4734130000000  0.5739420000000  0.4690560000000 1.0
C      1  0.4924770000000  0.4260510000000  0.4599140000000 1.0
C      1  0.5134980000000  0.5739510000000  0.4615170000000 1.0
C      1  0.5309610000000  0.4260590000000  0.4734280000000 1.0
C      1  0.5400690000000  0.5739560000000  0.4924620000000 1.0
C      1  0.5385000000000  0.4260600000000  0.5135130000000 1.0
C      1  0.5265560000000  0.5739530000000  0.5309460000000 1.0
C      1  0.5075550000000  0.4260540000000  0.5400840000000 1.0
C      1  0.4864710000000  0.5739440000000  0.5384850000000 1.0
C      1  0.4690710000000  0.4260460000000  0.5265710000000 1.0
C      1  0.4598990000000  0.5739390000000  0.5075400000000 1.0
C      1  0.5031310000000  0.4368300000000  0.5624540000000 1.0
C      1  0.4714600000000  0.5631630000000  0.5556470000000 1.0
C      1  0.4474850000000  0.4368190000000  0.5339270000000 1.0
C      1  0.4375320000000  0.5631560000000  0.5031180000000 1.0
C      1  0.4443680000000  0.4368190000000  0.4714720000000 1.0
C      1  0.4660590000000  0.5631630000000  0.4474730000000 1.0
C      1  0.4968960000000  0.4368300000000  0.4375450000000 1.0
C      1  0.5285140000000  0.5631760000000  0.4443550000000 1.0
C      1  0.5525420000000  0.4368420000000  0.4660720000000 1.0
C      1  0.5624410000000  0.5631830000000  0.4968830000000 1.0
C      1  0.5556590000000  0.4368420000000  0.5285260000000 1.0
C      1  0.5339140000000  0.5631760000000  0.5525290000000 1.0
C      1  0.5048800000000  0.4212730000000  0.5133240000000 1.0
C      1  0.4975330000000  0.5787270000000  0.5139720000000 1.0
C      1  0.4909090000000  0.4212700000000  0.5108740000000 1.0
C      1  0.4866590000000  0.5787250000000  0.5048650000000 1.0
C      1  0.4860450000000  0.4212690000000  0.4975490000000 1.0
C      1  0.4891090000000  0.5787250000000  0.4908930000000 1.0
C      1  0.4951530000000  0.4212710000000  0.4866750000000 1.0
C      1  0.5024330000000  0.5787280000000  0.4860300000000 1.0
C      1  0.5091240000000  0.4212740000000  0.4891250000000 1.0
C      1  0.5133080000000  0.5787310000000  0.4951370000000 1.0
C      1  0.5139880000000  0.4212750000000  0.5024490000000 1.0
C      1  0.5108580000000  0.5787300000000  0.5091080000000 1.0
C      1  0.4628240000000  0.4394220000000  0.5535010000000 1.0
C      1  0.4410300000000  0.5605560000000  0.5277400000000 1.0
C      1  0.4350850000000  0.4394170000000  0.4945430000000 1.0
C      1  0.4464860000000  0.5605580000000  0.4628110000000 1.0
C      1  0.4722740000000  0.4394260000000  0.4410420000000 1.0
C      1  0.5054430000000  0.5605710000000  0.4350720000000 1.0
C      1  0.5372020000000  0.4394390000000  0.4464980000000 1.0
C      1  0.5589450000000  0.5605820000000  0.4722620000000 1.0
C      1  0.5649410000000  0.4394450000000  0.5054550000000 1.0
C      1  0.5534890000000  0.5605800000000  0.5371900000000 1.0
C      1  0.5277520000000  0.4394360000000  0.5589570000000 1.0
C      1  0.4945310000000  0.5605670000000  0.5649290000000 1.0
C      1  0.5422630000000  0.5256220000000  0.4553270000000 1.0
C      1  0.5589480000000  0.4744000000000  0.4824460000000 1.0
C      1  0.5598170000000  0.5256250000000  0.5142690000000 1.0
C      1  0.5446780000000  0.4743960000000  0.5422680000000 1.0
C      1  0.5175480000000  0.5256160000000  0.5589430000000 1.0
C      1  0.4857360000000  0.4743830000000  0.5598220000000 1.0
C      1  0.4577260000000  0.5256030000000  0.5446730000000 1.0
C      1  0.4410630000000  0.4743740000000  0.5175530000000 1.0
C      1  0.4401720000000  0.5256000000000  0.4857310000000 1.0
C      1  0.4553320000000  0.4743780000000  0.4577310000000 1.0
C      1  0.4824410000000  0.5256100000000  0.4410580000000 1.0
C      1  0.5142750000000  0.4743910000000  0.4401770000000 1.0
C      1  0.5647140000000  0.4623070000000  0.4861200000000 1.0
C      1  0.5629690000000  0.5377200000000  0.5203330000000 1.0
C      1  0.5443820000000  0.4623020000000  0.5490970000000 1.0
C      1  0.5138720000000  0.5377090000000  0.5647070000000 1.0
C      1  0.4796750000000  0.4622880000000  0.5629770000000 1.0
C      1  0.4508950000000  0.5376960000000  0.5443740000000 1.0
C      1  0.4353020000000  0.4622790000000  0.5138800000000 1.0
C      1  0.4370150000000  0.5376940000000  0.4796680000000 1.0
C      1  0.4556340000000  0.4622840000000  0.4509020000000 1.0
C      1  0.4861120000000  0.5377050000000  0.4352940000000 1.0
C      1  0.5203410000000  0.4622980000000  0.4370220000000 1.0
C      1  0.5490890000000  0.5377180000000  0.4556270000000 1.0
C      1  0.4831770000000  0.4387360000000  0.4356740000000 1.0
C      1  0.5175700000000  0.5612660000000  0.4358750000000 1.0
C      1  0.5473030000000  0.4387490000000  0.4532560000000 1.0
C      1  0.5643130000000  0.5612750000000  0.4831650000000 1.0
C      1  0.5641390000000  0.4387520000000  0.5175820000000 1.0
C      1  0.5467300000000  0.5612710000000  0.5472900000000 1.0
C      1  0.5168490000000  0.4387410000000  0.5643250000000 1.0
C      1  0.4824040000000  0.5612570000000  0.5641260000000 1.0
C      1  0.4527230000000  0.4387280000000  0.5467420000000 1.0
C      1  0.4356610000000  0.5612480000000  0.5168360000000 1.0
C      1  0.4358870000000  0.4387250000000  0.4824170000000 1.0
C      1  0.4532440000000  0.5612520000000  0.4527110000000 1.0
C      1  0.4648230000000  0.5738580000000  0.4797320000000 1.0
C      1  0.4796990000000  0.4261310000000  0.4648650000000 1.0
C      1  0.4999570000000  0.5738660000000  0.4594150000000 1.0
C      1  0.5202850000000  0.4261400000000  0.4648370000000 1.0
C      1  0.5351190000000  0.5738730000000  0.4796840000000 1.0
C      1  0.5406010000000  0.4261430000000  0.4999720000000 1.0
C      1  0.5351460000000  0.5738720000000  0.5202700000000 1.0
C      1  0.5203320000000  0.4261390000000  0.5351340000000 1.0
C      1  0.5000120000000  0.5738650000000  0.5405860000000 1.0
C      1  0.4797460000000  0.4261300000000  0.5351610000000 1.0
C      1  0.4648500000000  0.5738570000000  0.5203170000000 1.0
C      1  0.4594300000000  0.4261260000000  0.5000260000000 1.0
C      1  0.4572040000000  0.4304760000000  0.4736020000000 1.0
C      1  0.4761090000000  0.5695110000000  0.4557350000000 1.0
C      1  0.5014700000000  0.4304850000000  0.4497260000000 1.0
C      1  0.5263820000000  0.5695220000000  0.4571900000000 1.0
C      1  0.5442800000000  0.4304940000000  0.4761230000000 1.0
C      1  0.5502590000000  0.5695260000000  0.5014560000000 1.0
C      1  0.5428250000000  0.4304930000000  0.5263960000000 1.0
C      1  0.5238620000000  0.5695200000000  0.5442660000000 1.0
C      1  0.4985600000000  0.4304840000000  0.5502730000000 1.0
C      1  0.4735880000000  0.5695100000000  0.5428110000000 1.0
C      1  0.4557490000000  0.4304750000000  0.5238760000000 1.0
C      1  0.4497120000000  0.5695050000000  0.4985460000000 1.0
END
