TITL C-616442-5639-25 172.50369089817 1000000 -3693.40615518054 0 0 520 (C1) n - 1
REM
REM in /scratch/bkarasulu/Only-C240/Try3-MINAMP_3A
REM
REM
REM
REM
REM
REM ./C.cell (861c01eed278495e92615705e35c7759)
REM
REM compiler GCC version 9.2.1 20190827 (Red Hat 9.2.1-1)
REM options -cpp -mtune=generic -march=x86-64 -g -O0 -fpre-include=/usr/include/finclude/math-vector-fortran.h
REM seed 1983077429 2123512211 1618441991 -750948327 1493302993 -1517599385 -1626678731 1061356882 -1381279047 -1176072276 478261130 137479708 -1778329489 -1296867494 1307595017 -1269095102 763905643 -600105940 1798211174 -974172060 1281420903 1463826618 341828808 -1621611539 -1405201506 230221835 -1134818320 -1344342924 -695315144 -2886977 296040901 339068107 -795611415
REM
CELL 1.54180  100.00000  100.00000  100.00000   90.00000   90.00000   90.00000
LATT -1
SFAC C  
C      1  0.5807470000000  0.5179030000000  0.4733710000000 1.0
C      1  0.5495220000000  0.5174980000000  0.5685010000000 1.0
C      1  0.4502330000000  0.5178610000000  0.5685070000000 1.0
C      1  0.4194080000000  0.5178000000000  0.4741610000000 1.0
C      1  0.5002750000000  0.5174950000000  0.4152010000000 1.0
C      1  0.4592670000000  0.5098400000000  0.4942390000000 1.0
C      1  0.4952580000000  0.5097570000000  0.4592850000000 1.0
C      1  0.5371220000000  0.5097860000000  0.4805460000000 1.0
C      1  0.5279860000000  0.5099250000000  0.5296660000000 1.0
C      1  0.4808250000000  0.5100400000000  0.5362090000000 1.0
C      1  0.4491860000000  0.4661030000000  0.5184940000000 1.0
C      1  0.4681330000000  0.4666720000000  0.4597190000000 1.0
C      1  0.5305660000000  0.4659890000000  0.4552220000000 1.0
C      1  0.5499470000000  0.4667380000000  0.5137660000000 1.0
C      1  0.5016750000000  0.4662800000000  0.5527190000000 1.0
C      1  0.4661990000000  0.5232600000000  0.5109280000000 1.0
C      1  0.4841550000000  0.5249950000000  0.4702620000000 1.0
C      1  0.5222850000000  0.5231780000000  0.4707420000000 1.0
C      1  0.5305750000000  0.5252480000000  0.5143170000000 1.0
C      1  0.4984080000000  0.5236970000000  0.5347240000000 1.0
C      1  0.4747450000000  0.4410190000000  0.4555710000000 1.0
C      1  0.5355880000000  0.4398450000000  0.4606890000000 1.0
C      1  0.5472860000000  0.4407660000000  0.5210010000000 1.0
C      1  0.4940600000000  0.4405460000000  0.5515480000000 1.0
C      1  0.4481510000000  0.4399650000000  0.5111160000000 1.0
C      1  0.5566330000000  0.5580290000000  0.5145880000000 1.0
C      1  0.5039460000000  0.5588900000000  0.5592490000000 1.0
C      1  0.4445380000000  0.5590130000000  0.5221610000000 1.0
C      1  0.4628950000000  0.5578340000000  0.4546980000000 1.0
C      1  0.5316330000000  0.5585510000000  0.4502950000000 1.0
C      1  0.4716630000000  0.5690270000000  0.5249210000000 1.0
C      1  0.4687390000000  0.5675060000000  0.4815500000000 1.0
C      1  0.5075870000000  0.5679910000000  0.4648310000000 1.0
C      1  0.5363440000000  0.5684910000000  0.4966010000000 1.0
C      1  0.5148850000000  0.5691370000000  0.5344160000000 1.0
C      1  0.4316480000000  0.5365690000000  0.4892990000000 1.0
C      1  0.4900260000000  0.5360350000000  0.4318890000000 1.0
C      1  0.5619630000000  0.5365160000000  0.4682550000000 1.0
C      1  0.5480820000000  0.5361060000000  0.5489920000000 1.0
C      1  0.4685830000000  0.5364420000000  0.5609420000000 1.0
C      1  0.4334950000000  0.4892660000000  0.4376040000000 1.0
C      1  0.5393720000000  0.4889030000000  0.4162130000000 1.0
C      1  0.5908080000000  0.4894750000000  0.5112840000000 1.0
C      1  0.5170540000000  0.4890240000000  0.5900970000000 1.0
C      1  0.4190330000000  0.4893150000000  0.5446530000000 1.0
C      1  0.5283370000000  0.5224860000000  0.5754930000000 1.0
C      1  0.4366920000000  0.5228390000000  0.5508630000000 1.0
C      1  0.4329470000000  0.5225110000000  0.4563100000000 1.0
C      1  0.5215960000000  0.5225890000000  0.4215550000000 1.0
C      1  0.5801450000000  0.5226800000000  0.4957690000000 1.0
C      1  0.5443020000000  0.4690820000000  0.4592780000000 1.0
C      1  0.5507930000000  0.4695420000000  0.5283740000000 1.0
C      1  0.4880860000000  0.4692510000000  0.5577020000000 1.0
C      1  0.4405800000000  0.4692660000000  0.5070730000000 1.0
C      1  0.4760030000000  0.4694660000000  0.4473700000000 1.0
C      1  0.5809300000000  0.4967920000000  0.4890560000000 1.0
C      1  0.5348330000000  0.4964370000000  0.5735180000000 1.0
C      1  0.4406050000000  0.4967070000000  0.5561690000000 1.0
C      1  0.4286000000000  0.4967080000000  0.4614290000000 1.0
C      1  0.5151970000000  0.4963740000000  0.4195860000000 1.0
C      1  0.5463020000000  0.5063600000000  0.4452490000000 1.0
C      1  0.5645970000000  0.5065860000000  0.5264250000000 1.0
C      1  0.4945170000000  0.5064140000000  0.5701380000000 1.0
C      1  0.4309660000000  0.5064750000000  0.5172010000000 1.0
C      1  0.4635740000000  0.5063370000000  0.4406700000000 1.0
C      1  0.5859920000000  0.4731900000000  0.4913780000000 1.0
C      1  0.5345220000000  0.4728180000000  0.5790030000000 1.0
C      1  0.4351820000000  0.4730680000000  0.5575340000000 1.0
C      1  0.4257020000000  0.4731200000000  0.4566070000000 1.0
C      1  0.5186180000000  0.4726970000000  0.4154600000000 1.0
C      1  0.5547670000000  0.4695750000000  0.4914350000000 1.0
C      1  0.5242270000000  0.4695320000000  0.5490580000000 1.0
C      1  0.4603740000000  0.4694340000000  0.5382950000000 1.0
C      1  0.4511380000000  0.4696550000000  0.4749960000000 1.0
C      1  0.5097370000000  0.4694360000000  0.4461020000000 1.0
C      1  0.5619870000000  0.5330410000000  0.5432060000000 1.0
C      1  0.4782310000000  0.5334140000000  0.5723550000000 1.0
C      1  0.4237400000000  0.5336060000000  0.5020750000000 1.0
C      1  0.4753760000000  0.5328820000000  0.4285100000000 1.0
C      1  0.5611600000000  0.5335500000000  0.4531510000000 1.0
C      1  0.4562050000000  0.4481200000000  0.5593420000000 1.0
C      1  0.4302090000000  0.4482060000000  0.4770190000000 1.0
C      1  0.5004470000000  0.4479790000000  0.4267870000000 1.0
C      1  0.5703830000000  0.4481810000000  0.4775450000000 1.0
C      1  0.5426870000000  0.4480690000000  0.5593830000000 1.0
C      1  0.4767160000000  0.5701900000000  0.4700500000000 1.0
C      1  0.5212210000000  0.5707160000000  0.4681990000000 1.0
C      1  0.5368040000000  0.5706350000000  0.5106870000000 1.0
C      1  0.5018360000000  0.5712490000000  0.5394260000000 1.0
C      1  0.4632270000000  0.5707350000000  0.5137490000000 1.0
C      1  0.5469100000000  0.5057100000000  0.4905620000000 1.0
C      1  0.5218790000000  0.5052130000000  0.5418630000000 1.0
C      1  0.4671360000000  0.5056150000000  0.5336650000000 1.0
C      1  0.4571750000000  0.5056540000000  0.4803680000000 1.0
C      1  0.5075660000000  0.5052780000000  0.4529180000000 1.0
C      1  0.4489480000000  0.4588290000000  0.4360000000000 1.0
C      1  0.5456110000000  0.4584450000000  0.4297060000000 1.0
C      1  0.5794100000000  0.4590120000000  0.5217240000000 1.0
C      1  0.5039500000000  0.4586310000000  0.5825710000000 1.0
C      1  0.4218170000000  0.4587410000000  0.5299990000000 1.0
C      1  0.4489130000000  0.4946490000000  0.5424190000000 1.0
C      1  0.4442750000000  0.4950140000000  0.4653230000000 1.0
C      1  0.5166530000000  0.4942840000000  0.4355440000000 1.0
C      1  0.5660040000000  0.4949820000000  0.4951430000000 1.0
C      1  0.5244110000000  0.4945400000000  0.5612800000000 1.0
C      1  0.4734310000000  0.5642830000000  0.4946870000000 1.0
C      1  0.4978860000000  0.5651360000000  0.4752780000000 1.0
C      1  0.5235340000000  0.5663470000000  0.4905740000000 1.0
C      1  0.5169500000000  0.5670870000000  0.5205000000000 1.0
C      1  0.4858650000000  0.5674990000000  0.5246010000000 1.0
C      1  0.4940280000000  0.4513740000000  0.5102320000000 1.0
C      1  0.4883950000000  0.4516890000000  0.4972740000000 1.0
C      1  0.4991030000000  0.4516970000000  0.4881320000000 1.0
C      1  0.5112480000000  0.4520100000000  0.4955410000000 1.0
C      1  0.5083810000000  0.4518910000000  0.5093360000000 1.0
C      1  0.4811130000000  0.4807750000000  0.4818100000000 1.0
C      1  0.5138100000000  0.4780110000000  0.4747450000000 1.0
C      1  0.5263560000000  0.4809850000000  0.5034230000000 1.0
C      1  0.5040420000000  0.4797870000000  0.5270030000000 1.0
C      1  0.4742790000000  0.4778870000000  0.5127940000000 1.0
C      1  0.4868190000000  0.5201530000000  0.5259030000000 1.0
C      1  0.4701010000000  0.5203520000000  0.4969710000000 1.0
C      1  0.4975550000000  0.5197720000000  0.4703390000000 1.0
C      1  0.5266700000000  0.5202810000000  0.4845960000000 1.0
C      1  0.5195920000000  0.5200660000000  0.5219740000000 1.0
C      1  0.5480200000000  0.5385940000000  0.4466480000000 1.0
C      1  0.5640960000000  0.5379100000000  0.5287600000000 1.0
C      1  0.4925210000000  0.5384170000000  0.5695730000000 1.0
C      1  0.4310060000000  0.5385540000000  0.5147990000000 1.0
C      1  0.4652550000000  0.5377100000000  0.4390370000000 1.0
C      1  0.5654030000000  0.4574390000000  0.4680700000000 1.0
C      1  0.5498350000000  0.4575200000000  0.5515630000000 1.0
C      1  0.4658860000000  0.4575310000000  0.5635880000000 1.0
C      1  0.4286410000000  0.4575130000000  0.4875790000000 1.0
C      1  0.4902080000000  0.4574740000000  0.4291460000000 1.0
C      1  0.4466480000000  0.5298430000000  0.4930600000000 1.0
C      1  0.4920770000000  0.5296660000000  0.4471660000000 1.0
C      1  0.5478130000000  0.5298990000000  0.4740800000000 1.0
C      1  0.5373860000000  0.5299160000000  0.5376350000000 1.0
C      1  0.4764470000000  0.5301260000000  0.5471680000000 1.0
C      1  0.5039430000000  0.4943940000000  0.4435180000000 1.0
C      1  0.5552360000000  0.4949650000000  0.4848660000000 1.0
C      1  0.5303610000000  0.4945200000000  0.5475450000000 1.0
C      1  0.4639020000000  0.4948010000000  0.5434960000000 1.0
C      1  0.4470110000000  0.4950220000000  0.4800030000000 1.0
C      1  0.5596480000000  0.4918140000000  0.5220970000000 1.0
C      1  0.4968780000000  0.4915330000000  0.5640670000000 1.0
C      1  0.4373600000000  0.4914900000000  0.5175280000000 1.0
C      1  0.4651620000000  0.4916610000000  0.4471600000000 1.0
C      1  0.5408400000000  0.4913440000000  0.4488470000000 1.0
C      1  0.4170620000000  0.5212610000000  0.5005820000000 1.0
C      1  0.4746060000000  0.5206210000000  0.4216190000000 1.0
C      1  0.5673750000000  0.5211730000000  0.4505050000000 1.0
C      1  0.5667120000000  0.5208230000000  0.5483650000000 1.0
C      1  0.4747600000000  0.5211490000000  0.5784720000000 1.0
C      1  0.4736730000000  0.4629330000000  0.5113550000000 1.0
C      1  0.4765780000000  0.4674990000000  0.4844020000000 1.0
C      1  0.5149750000000  0.4630950000000  0.4753980000000 1.0
C      1  0.5286650000000  0.4677580000000  0.4986230000000 1.0
C      1  0.5077550000000  0.4661720000000  0.5279240000000 1.0
C      1  0.4555000000000  0.5382500000000  0.5347550000000 1.0
C      1  0.4535380000000  0.5379890000000  0.4691480000000 1.0
C      1  0.5162900000000  0.5383050000000  0.4453060000000 1.0
C      1  0.5558840000000  0.5383940000000  0.4974880000000 1.0
C      1  0.5188590000000  0.5382800000000  0.5531870000000 1.0
C      1  0.5108110000000  0.5043270000000  0.4803190000000 1.0
C      1  0.5213280000000  0.5068590000000  0.5032140000000 1.0
C      1  0.5028530000000  0.5045240000000  0.5213850000000 1.0
C      1  0.4802030000000  0.5046210000000  0.5098450000000 1.0
C      1  0.4852660000000  0.5067870000000  0.4848750000000 1.0
C      1  0.5650140000000  0.4943320000000  0.4379940000000 1.0
C      1  0.5776050000000  0.4946030000000  0.5420090000000 1.0
C      1  0.4836960000000  0.4944780000000  0.5871900000000 1.0
C      1  0.4113910000000  0.4946360000000  0.5119500000000 1.0
C      1  0.4621550000000  0.4943650000000  0.4204490000000 1.0
C      1  0.5383400000000  0.4305020000000  0.5016920000000 1.0
C      1  0.5101890000000  0.4297580000000  0.5375830000000 1.0
C      1  0.4668880000000  0.4291820000000  0.5216110000000 1.0
C      1  0.4698070000000  0.4304710000000  0.4761680000000 1.0
C      1  0.5141610000000  0.4291400000000  0.4632620000000 1.0
C      1  0.5519190000000  0.5583800000000  0.4778450000000 1.0
C      1  0.5369370000000  0.5582430000000  0.5428600000000 1.0
C      1  0.4702930000000  0.5587980000000  0.5481050000000 1.0
C      1  0.4455630000000  0.5583690000000  0.4868350000000 1.0
C      1  0.4954020000000  0.5580460000000  0.4438460000000 1.0
C      1  0.4908770000000  0.5100360000000  0.5165790000000 1.0
C      1  0.4805890000000  0.5105410000000  0.4971560000000 1.0
C      1  0.4985720000000  0.5105430000000  0.4815830000000 1.0
C      1  0.5177350000000  0.5107630000000  0.4905960000000 1.0
C      1  0.5124420000000  0.5106190000000  0.5136280000000 1.0
C      1  0.5472080000000  0.4889570000000  0.5694620000000 1.0
C      1  0.4482290000000  0.4891720000000  0.5666010000000 1.0
C      1  0.4207720000000  0.4891840000000  0.4717650000000 1.0
C      1  0.5027710000000  0.4888350000000  0.4157770000000 1.0
C      1  0.5812190000000  0.4891730000000  0.4761030000000 1.0
C      1  0.4634600000000  0.5465710000000  0.5120030000000 1.0
C      1  0.4784160000000  0.5461240000000  0.4691190000000 1.0
C      1  0.5229690000000  0.5467700000000  0.4699080000000 1.0
C      1  0.5353830000000  0.5465480000000  0.5121740000000 1.0
C      1  0.4994040000000  0.5469720000000  0.5377630000000 1.0
C      1  0.5166210000000  0.4435460000000  0.4450940000000 1.0
C      1  0.5566730000000  0.4442490000000  0.4981400000000 1.0
C      1  0.5187170000000  0.4438500000000  0.5539160000000 1.0
C      1  0.4542690000000  0.4436300000000  0.5349410000000 1.0
C      1  0.4534050000000  0.4444870000000  0.4681860000000 1.0
C      1  0.4169270000000  0.4819740000000  0.5059210000000 1.0
C      1  0.4694300000000  0.4817260000000  0.4242160000000 1.0
C      1  0.5641390000000  0.4817510000000  0.4462550000000 1.0
C      1  0.5695640000000  0.4819130000000  0.5433040000000 1.0
C      1  0.4797760000000  0.4818500000000  0.5800250000000 1.0
C      1  0.5026940000000  0.4823360000000  0.4668770000000 1.0
C      1  0.5329570000000  0.4825050000000  0.4907470000000 1.0
C      1  0.5178390000000  0.4827000000000  0.5279950000000 1.0
C      1  0.4782730000000  0.4820790000000  0.5258950000000 1.0
C      1  0.4684870000000  0.4826050000000  0.4883650000000 1.0
C      1  0.5828380000000  0.4555500000000  0.5099980000000 1.0
C      1  0.5161110000000  0.4550170000000  0.5820480000000 1.0
C      1  0.4261920000000  0.4550720000000  0.5413340000000 1.0
C      1  0.4392010000000  0.4554740000000  0.4434220000000 1.0
C      1  0.5353600000000  0.4546900000000  0.4232370000000 1.0
C      1  0.4274880000000  0.4861490000000  0.4500040000000 1.0
C      1  0.5256210000000  0.4857000000000  0.4147430000000 1.0
C      1  0.5884790000000  0.4862560000000  0.4977210000000 1.0
C      1  0.5291650000000  0.4858240000000  0.5834700000000 1.0
C      1  0.4292520000000  0.4861060000000  0.5539420000000 1.0
C      1  0.4858920000000  0.4798880000000  0.4534150000000 1.0
C      1  0.5414340000000  0.4796460000000  0.4706290000000 1.0
C      1  0.5393170000000  0.4800300000000  0.5291960000000 1.0
C      1  0.4836810000000  0.4797100000000  0.5468760000000 1.0
C      1  0.4497640000000  0.4797360000000  0.4996470000000 1.0
C      1  0.5045900000000  0.4751250000000  0.4163190000000 1.0
C      1  0.5813480000000  0.4754660000000  0.4780600000000 1.0
C      1  0.5455110000000  0.4752440000000  0.5702050000000 1.0
C      1  0.4469630000000  0.4754400000000  0.5652060000000 1.0
C      1  0.4216530000000  0.4754650000000  0.4701090000000 1.0
C      1  0.4913630000000  0.4992190000000  0.5395740000000 1.0
C      1  0.4593540000000  0.4989840000000  0.5052350000000 1.0
C      1  0.4844040000000  0.4998150000000  0.4636520000000 1.0
C      1  0.5305880000000  0.4988820000000  0.4717170000000 1.0
C      1  0.5344000000000  0.4999990000000  0.5198760000000 1.0
C      1  0.4664440000000  0.4796180000000  0.5762740000000 1.0
C      1  0.4166410000000  0.4796720000000  0.4920270000000 1.0
C      1  0.4822990000000  0.4793220000000  0.4191100000000 1.0
C      1  0.5725870000000  0.4795410000000  0.4573160000000 1.0
C      1  0.5620320000000  0.4794910000000  0.5549530000000 1.0
C      1  0.4640510000000  0.4551430000000  0.5326890000000 1.0
C      1  0.4579480000000  0.4554050000000  0.4773010000000 1.0
C      1  0.5101520000000  0.4551010000000  0.4526340000000 1.0
C      1  0.5477400000000  0.4553390000000  0.4936020000000 1.0
C      1  0.5201100000000  0.4549970000000  0.5440120000000 1.0
C      1  0.5398610000000  0.4602890000000  0.5053270000000 1.0
C      1  0.5061310000000  0.4594180000000  0.5407930000000 1.0
C      1  0.4613860000000  0.4587010000000  0.5184360000000 1.0
C      1  0.4713890000000  0.4601280000000  0.4724690000000 1.0
C      1  0.5207210000000  0.4586700000000  0.4625190000000 1.0
C      1  0.4879310000000  0.5147300000000  0.4468170000000 1.0
C      1  0.5471980000000  0.5148580000000  0.4702030000000 1.0
C      1  0.5411430000000  0.5149630000000  0.5355690000000 1.0
C      1  0.4789010000000  0.5150410000000  0.5504020000000 1.0
C      1  0.4450060000000  0.5149010000000  0.4965700000000 1.0
C      1  0.5685580000000  0.5063070000000  0.5415300000000 1.0
C      1  0.4814650000000  0.5062260000000  0.5783840000000 1.0
C      1  0.4191110000000  0.5063940000000  0.5071150000000 1.0
C      1  0.4692020000000  0.5060840000000  0.4261170000000 1.0
C      1  0.5618270000000  0.5062070000000  0.4464120000000 1.0
C      1  0.5867850000000  0.5016960000000  0.5190050000000 1.0
C      1  0.5084610000000  0.5012740000000  0.5888450000000 1.0
C      1  0.4175040000000  0.5015340000000  0.5361090000000 1.0
C      1  0.4412350000000  0.5014670000000  0.4336320000000 1.0
C      1  0.5457290000000  0.5011480000000  0.4221000000000 1.0
C      1  0.4537550000000  0.4353040000000  0.5224000000000 1.0
C      1  0.4654760000000  0.4365370000000  0.4640430000000 1.0
C      1  0.5243640000000  0.4352180000000  0.4549490000000 1.0
C      1  0.5493690000000  0.4363840000000  0.5085870000000 1.0
C      1  0.5065080000000  0.4358190000000  0.5500760000000 1.0
C      1  0.5431290000000  0.5160400000000  0.4560380000000 1.0
C      1  0.5530410000000  0.5160610000000  0.5266740000000 1.0
C      1  0.4906360000000  0.5160470000000  0.5593620000000 1.0
C      1  0.4401070000000  0.5159620000000  0.5104140000000 1.0
C      1  0.4730680000000  0.5158040000000  0.4471670000000 1.0
C      1  0.5402170000000  0.5485750000000  0.5525180000000 1.0
C      1  0.4626650000000  0.5489680000000  0.5546940000000 1.0
C      1  0.4364810000000  0.5489310000000  0.4815950000000 1.0
C      1  0.4984420000000  0.5486110000000  0.4338160000000 1.0
C      1  0.5623700000000  0.5489250000000  0.4773540000000 1.0
C      1  0.5738290000000  0.4691340000000  0.4670910000000 1.0
C      1  0.5533730000000  0.4690600000000  0.5594070000000 1.0
C      1  0.4596010000000  0.4691820000000  0.5693460000000 1.0
C      1  0.4212720000000  0.4691980000000  0.4834110000000 1.0
C      1  0.4919370000000  0.4689570000000  0.4206350000000 1.0
C      1  0.4991080000000  0.5299170000000  0.4214110000000 1.0
C      1  0.5744330000000  0.5303050000000  0.4741280000000 1.0
C      1  0.5468330000000  0.5299040000000  0.5627670000000 1.0
C      1  0.4550200000000  0.5301790000000  0.5640290000000 1.0
C      1  0.4249190000000  0.5302490000000  0.4772400000000 1.0
C      1  0.4811850000000  0.5339430000000  0.4584730000000 1.0
C      1  0.5332680000000  0.5337170000000  0.4670650000000 1.0
C      1  0.5397660000000  0.5342590000000  0.5222030000000 1.0
C      1  0.4923630000000  0.5338560000000  0.5445570000000 1.0
C      1  0.4547790000000  0.5335580000000  0.5077820000000 1.0
C      1  0.5861180000000  0.4938360000000  0.5312240000000 1.0
C      1  0.4966070000000  0.4934440000000  0.5918840000000 1.0
C      1  0.4109840000000  0.4936670000000  0.5257200000000 1.0
C      1  0.4489370000000  0.4935750000000  0.4241550000000 1.0
C      1  0.5571180000000  0.4932950000000  0.4266980000000 1.0
C      1  0.4890020000000  0.5456190000000  0.5042690000000 1.0
C      1  0.4915130000000  0.5388920000000  0.4908450000000 1.0
C      1  0.5055530000000  0.5391470000000  0.4888790000000 1.0
C      1  0.5119060000000  0.5392950000000  0.5017350000000 1.0
C      1  0.5020200000000  0.5419140000000  0.5114670000000 1.0
C      1  0.5446850000000  0.5525730000000  0.4523230000000 1.0
C      1  0.5585620000000  0.5520470000000  0.5276830000000 1.0
C      1  0.4918980000000  0.5522620000000  0.5629900000000 1.0
C      1  0.4373770000000  0.5522310000000  0.5119230000000 1.0
C      1  0.4691150000000  0.5519130000000  0.4430480000000 1.0
C      1  0.5126970000000  0.4496580000000  0.4211740000000 1.0
C      1  0.5788320000000  0.4500630000000  0.4879550000000 1.0
C      1  0.5358540000000  0.4497300000000  0.5709820000000 1.0
C      1  0.4430670000000  0.4499310000000  0.5564680000000 1.0
C      1  0.4294780000000  0.4500080000000  0.4636300000000 1.0
C      1  0.5042110000000  0.5341890000000  0.5773020000000 1.0
C      1  0.4274970000000  0.5345010000000  0.5284430000000 1.0
C      1  0.4513510000000  0.5334730000000  0.4401540000000 1.0
C      1  0.5425890000000  0.5342620000000  0.4339110000000 1.0
C      1  0.5747080000000  0.5336950000000  0.5196990000000 1.0
C      1  0.5324910000000  0.5316020000000  0.4917860000000 1.0
C      1  0.5123820000000  0.5298930000000  0.5301900000000 1.0
C      1  0.4762300000000  0.5301880000000  0.5215570000000 1.0
C      1  0.4692750000000  0.5316760000000  0.4877180000000 1.0
C      1  0.5082360000000  0.5292900000000  0.4671250000000 1.0
C      1  0.4386940000000  0.5014350000000  0.4922010000000 1.0
C      1  0.4897800000000  0.5010970000000  0.4397720000000 1.0
C      1  0.5548200000000  0.5013410000000  0.4700320000000 1.0
C      1  0.5439560000000  0.5013410000000  0.5423810000000 1.0
C      1  0.4728900000000  0.5014390000000  0.5550350000000 1.0
C      1  0.4882530000000  0.4852030000000  0.4694200000000 1.0
C      1  0.5268700000000  0.4846430000000  0.4773090000000 1.0
C      1  0.5280840000000  0.4853700000000  0.5175340000000 1.0
C      1  0.4912620000000  0.4847680000000  0.5326600000000 1.0
C      1  0.4654830000000  0.4846470000000  0.5028720000000 1.0
C      1  0.4174160000000  0.4916500000000  0.4849990000000 1.0
C      1  0.4891810000000  0.4912560000000  0.4172370000000 1.0
C      1  0.5762290000000  0.4915510000000  0.4633640000000 1.0
C      1  0.5574280000000  0.4914190000000  0.5603910000000 1.0
C      1  0.4599760000000  0.4916240000000  0.5735090000000 1.0
C      1  0.4810910000000  0.5602950000000  0.4454510000000 1.0
C      1  0.5459700000000  0.5607430000000  0.4647050000000 1.0
C      1  0.5475720000000  0.5604400000000  0.5330350000000 1.0
C      1  0.4844240000000  0.5603510000000  0.5516810000000 1.0
C      1  0.4463690000000  0.5599390000000  0.5013280000000 1.0
C      1  0.5302990000000  0.4411140000000  0.5612970000000 1.0
C      1  0.4505720000000  0.4412130000000  0.5481980000000 1.0
C      1  0.4397140000000  0.4416610000000  0.4685910000000 1.0
C      1  0.5115950000000  0.4409910000000  0.4323080000000 1.0
C      1  0.5676830000000  0.4416280000000  0.4899360000000 1.0
C      1  0.5132400000000  0.5227090000000  0.5742860000000 1.0
C      1  0.4328810000000  0.5229810000000  0.5362680000000 1.0
C      1  0.4459830000000  0.5225150000000  0.4486200000000 1.0
C      1  0.5334400000000  0.5228360000000  0.4309990000000 1.0
C      1  0.5741100000000  0.5227740000000  0.5096570000000 1.0
C      1  0.5494000000000  0.4713690000000  0.4332070000000 1.0
C      1  0.5772900000000  0.4720870000000  0.5260070000000 1.0
C      1  0.4989600000000  0.4716070000000  0.5819220000000 1.0
C      1  0.4209880000000  0.4717200000000  0.5250230000000 1.0
C      1  0.4531530000000  0.4719090000000  0.4337390000000 1.0
C      1  0.4618280000000  0.4489180000000  0.4913810000000 1.0
C      1  0.4982980000000  0.4488740000000  0.4615590000000 1.0
C      1  0.5361810000000  0.4488770000000  0.4845960000000 1.0
C      1  0.5248930000000  0.4487650000000  0.5299530000000 1.0
C      1  0.4788560000000  0.4487370000000  0.5325160000000 1.0
C      1  0.5877320000000  0.4818030000000  0.5238020000000 1.0
C      1  0.5041660000000  0.4814100000000  0.5911000000000 1.0
C      1  0.4139850000000  0.4816780000000  0.5327360000000 1.0
C      1  0.4433500000000  0.4815530000000  0.4293250000000 1.0
C      1  0.5505070000000  0.4813110000000  0.4228540000000 1.0
C      1  0.4930530000000  0.5686780000000  0.5124020000000 1.0
C      1  0.4876010000000  0.5628440000000  0.4992960000000 1.0
C      1  0.4986490000000  0.5664460000000  0.4893070000000 1.0
C      1  0.5106170000000  0.5683830000000  0.4964870000000 1.0
C      1  0.5072750000000  0.5695510000000  0.5105590000000 1.0
C      1  0.4450260000000  0.4931320000000  0.5043220000000 1.0
C      1  0.4802720000000  0.4932970000000  0.4501570000000 1.0
C      1  0.5426130000000  0.4930070000000  0.4640090000000 1.0
C      1  0.5456770000000  0.4935090000000  0.5284550000000 1.0
C      1  0.4864240000000  0.4931380000000  0.5527750000000 1.0
C      1  0.5229300000000  0.4580360000000  0.4883290000000 1.0
C      1  0.5160850000000  0.4568910000000  0.5201220000000 1.0
C      1  0.4847280000000  0.4556990000000  0.5199920000000 1.0
C      1  0.4748350000000  0.4579020000000  0.4961850000000 1.0
C      1  0.5007660000000  0.4560900000000  0.4748770000000 1.0
C      1  0.5014910000000  0.4342000000000  0.4643670000000 1.0
C      1  0.5337660000000  0.4349610000000  0.4896350000000 1.0
C      1  0.5201090000000  0.4343870000000  0.5293800000000 1.0
C      1  0.4778210000000  0.4341770000000  0.5281860000000 1.0
C      1  0.4664280000000  0.4349120000000  0.4886270000000 1.0
C      1  0.5500550000000  0.4773650000000  0.4467510000000 1.0
C      1  0.5643860000000  0.4780220000000  0.5300350000000 1.0
C      1  0.4907860000000  0.4776360000000  0.5711590000000 1.0
C      1  0.4286250000000  0.4776590000000  0.5137930000000 1.0
C      1  0.4659330000000  0.4778980000000  0.4380440000000 1.0
C      1  0.5574040000000  0.4747480000000  0.5047220000000 1.0
C      1  0.5126190000000  0.4745710000000  0.5561960000000 1.0
C      1  0.4496800000000  0.4744190000000  0.5299020000000 1.0
C      1  0.4568440000000  0.4747430000000  0.4626910000000 1.0
C      1  0.5233770000000  0.4743660000000  0.4464250000000 1.0
C      1  0.4232490000000  0.5027370000000  0.4923270000000 1.0
C      1  0.4844910000000  0.5023230000000  0.4252450000000 1.0
C      1  0.5672230000000  0.5026390000000  0.4608030000000 1.0
C      1  0.5566580000000  0.5025170000000  0.5511540000000 1.0
C      1  0.4685840000000  0.5027020000000  0.5699650000000 1.0
C      1  0.4564170000000  0.5334870000000  0.4832370000000 1.0
C      1  0.5051640000000  0.5325110000000  0.4529580000000 1.0
C      1  0.5455160000000  0.5335990000000  0.4878410000000 1.0
C      1  0.5231920000000  0.5328640000000  0.5402210000000 1.0
C      1  0.4696010000000  0.5332940000000  0.5347360000000 1.0
C      1  0.4397150000000  0.5436940000000  0.4687710000000 1.0
C      1  0.5117150000000  0.5438610000000  0.4323120000000 1.0
C      1  0.5673140000000  0.5439010000000  0.4896520000000 1.0
C      1  0.5301190000000  0.5436880000000  0.5612480000000 1.0
C      1  0.4512490000000  0.5438710000000  0.5479090000000 1.0
C      1  0.5112260000000  0.4878010000000  0.5609250000000 1.0
C      1  0.4449420000000  0.4877220000000  0.5300150000000 1.0
C      1  0.4552350000000  0.4880560000000  0.4580990000000 1.0
C      1  0.5272660000000  0.4875710000000  0.4433300000000 1.0
C      1  0.5613290000000  0.4881080000000  0.5074510000000 1.0
C      1  0.5580020000000  0.5253890000000  0.5063660000000 1.0
C      1  0.5114610000000  0.5249620000000  0.5581270000000 1.0
C      1  0.4479790000000  0.5251330000000  0.5296690000000 1.0
C      1  0.4571430000000  0.5250690000000  0.4608030000000 1.0
C      1  0.5254910000000  0.5251400000000  0.4450900000000 1.0
C      1  0.4776440000000  0.4265200000000  0.4869220000000 1.0
C      1  0.5064540000000  0.4259490000000  0.4747010000000 1.0
C      1  0.5255910000000  0.4267530000000  0.4977170000000 1.0
C      1  0.5099710000000  0.4260800000000  0.5240550000000 1.0
C      1  0.4797720000000  0.4259280000000  0.5168480000000 1.0
C      1  0.5120110000000  0.5510110000000  0.5489860000000 1.0
C      1  0.4567160000000  0.5509460000000  0.5267870000000 1.0
C      1  0.4619860000000  0.5502700000000  0.4675910000000 1.0
C      1  0.5191610000000  0.5508650000000  0.4534330000000 1.0
C      1  0.5496490000000  0.5507200000000  0.5034090000000 1.0
C      1  0.5222870000000  0.5604700000000  0.5429190000000 1.0
C      1  0.4653560000000  0.5606520000000  0.5344250000000 1.0
C      1  0.4573550000000  0.5599090000000  0.4782130000000 1.0
C      1  0.5069370000000  0.5600390000000  0.4529640000000 1.0
C      1  0.5469730000000  0.5602910000000  0.4918580000000 1.0
C      1  0.4649950000000  0.5086110000000  0.5156850000000 1.0
C      1  0.4770110000000  0.5110570000000  0.4721140000000 1.0
C      1  0.5201360000000  0.5084550000000  0.4663960000000 1.0
C      1  0.5354320000000  0.5112340000000  0.5087230000000 1.0
C      1  0.5028340000000  0.5090220000000  0.5376500000000 1.0
C      1  0.5845870000000  0.4596040000000  0.4967570000000 1.0
C      1  0.5291980000000  0.4591210000000  0.5793760000000 1.0
C      1  0.4330750000000  0.4593400000000  0.5527400000000 1.0
C      1  0.4300070000000  0.4595240000000  0.4531000000000 1.0
C      1  0.5230510000000  0.4589470000000  0.4181370000000 1.0
C      1  0.4484970000000  0.4471070000000  0.4995380000000 1.0
C      1  0.4858840000000  0.4477390000000  0.4521310000000 1.0
C      1  0.5422440000000  0.4469810000000  0.4701570000000 1.0
C      1  0.5404000000000  0.4474530000000  0.5304320000000 1.0
C      1  0.4831040000000  0.4474830000000  0.5476930000000 1.0
C      1  0.5134640000000  0.5114120000000  0.4171220000000 1.0
C      1  0.5825280000000  0.5117440000000  0.4866090000000 1.0
C      1  0.5376270000000  0.5114060000000  0.5744980000000 1.0
C      1  0.4406840000000  0.5117180000000  0.5592230000000 1.0
C      1  0.4257420000000  0.5116150000000  0.4624260000000 1.0
C      1  0.5514610000000  0.4571670000000  0.4649860000000 1.0
C      1  0.5481640000000  0.4576840000000  0.5373790000000 1.0
C      1  0.4788160000000  0.4574430000000  0.5575600000000 1.0
C      1  0.4380740000000  0.4573440000000  0.4982760000000 1.0
C      1  0.4834670000000  0.4576740000000  0.4417150000000 1.0
C      1  0.5760890000000  0.5109210000000  0.5181560000000 1.0
C      1  0.5059280000000  0.5106830000000  0.5786180000000 1.0
C      1  0.4265060000000  0.5109200000000  0.5306350000000 1.0
C      1  0.4494010000000  0.5106720000000  0.4405950000000 1.0
C      1  0.5418540000000  0.5106860000000  0.4317650000000 1.0
C      1  0.4172450000000  0.5151590000000  0.4874700000000 1.0
C      1  0.4871050000000  0.5145990000000  0.4176230000000 1.0
C      1  0.5748540000000  0.5151030000000  0.4612560000000 1.0
C      1  0.5589260000000  0.5147580000000  0.5589170000000 1.0
C      1  0.4622790000000  0.5151320000000  0.5744360000000 1.0
C      1  0.5282230000000  0.4806850000000  0.5399100000000 1.0
C      1  0.4701950000000  0.4805640000000  0.5393630000000 1.0
C      1  0.4527760000000  0.4807730000000  0.4846610000000 1.0
C      1  0.5012210000000  0.4805690000000  0.4511990000000 1.0
C      1  0.5478340000000  0.4807090000000  0.4845150000000 1.0
C      1  0.4973490000000  0.5697870000000  0.5524330000000 1.0
C      1  0.4493640000000  0.5696690000000  0.5135960000000 1.0
C      1  0.4738380000000  0.5670280000000  0.4566200000000 1.0
C      1  0.5332250000000  0.5677050000000  0.4612980000000 1.0
C      1  0.5469150000000  0.5672950000000  0.5198260000000 1.0
C      1  0.5119210000000  0.4235460000000  0.4994940000000 1.0
C      1  0.5040770000000  0.4233790000000  0.5114320000000 1.0
C      1  0.4903200000000  0.4233850000000  0.5076240000000 1.0
C      1  0.4898110000000  0.4234390000000  0.4933920000000 1.0
C      1  0.5031810000000  0.4234500000000  0.4883200000000 1.0
C      1  0.4776830000000  0.5426060000000  0.5137200000000 1.0
C      1  0.4809520000000  0.5363820000000  0.4807540000000 1.0
C      1  0.5106030000000  0.5407390000000  0.4756040000000 1.0
C      1  0.5266690000000  0.5366350000000  0.5040610000000 1.0
C      1  0.5058510000000  0.5421260000000  0.5251050000000 1.0
C      1  0.4918230000000  0.5601430000000  0.5364920000000 1.0
C      1  0.4628030000000  0.5592200000000  0.5039260000000 1.0
C      1  0.4856860000000  0.5594360000000  0.4704180000000 1.0
C      1  0.5244340000000  0.5604320000000  0.4773530000000 1.0
C      1  0.5289830000000  0.5601700000000  0.5162290000000 1.0
C      1  0.5122160000000  0.5122520000000  0.5487090000000 1.0
C      1  0.4569020000000  0.5126750000000  0.5276350000000 1.0
C      1  0.4626050000000  0.5132830000000  0.4699660000000 1.0
C      1  0.5194380000000  0.5123330000000  0.4520430000000 1.0
C      1  0.5484150000000  0.5134560000000  0.5021290000000 1.0
C      1  0.5766340000000  0.5338070000000  0.4875580000000 1.0
C      1  0.5350210000000  0.5335750000000  0.5694580000000 1.0
C      1  0.4447820000000  0.5338790000000  0.5551540000000 1.0
C      1  0.4309290000000  0.5336580000000  0.4649820000000 1.0
C      1  0.5125660000000  0.5336850000000  0.4227560000000 1.0
C      1  0.4433280000000  0.5288250000000  0.5160670000000 1.0
C      1  0.4687570000000  0.5286700000000  0.4518770000000 1.0
C      1  0.5372400000000  0.5289990000000  0.4533060000000 1.0
C      1  0.5537500000000  0.5289600000000  0.5203580000000 1.0
C      1  0.4971320000000  0.5288380000000  0.5579380000000 1.0
END
