TITL C-66629-8849-15 154.83108340075 1000000 -3790.34077463357 0 0 540 (C1) n - 1
REM
REM in /home/chem/mssmkc/work/GAP20/Larger-Clusters/Only-C240/New/BUILD-ONLY/Try2-C540
REM
REM
REM
REM
REM
REM ./C.cell (4d22446d3c8a03e2533cb19ef5564aa4)
REM
REM compiler GCC version 8.3.0
REM options -cpp -mtune=generic -march=x86-64 -g -O0
REM seed -1761156801 -1524794796 1380991459 353634534 1969306620 -841006458 839643967 -392527271 1703281411 -1682177553 -351782792 268368421 1142876837 -1767212256 -716698412 916971983 143664253 -725566680 -614287015 -458256691 -683556354 -1747260995 891713985 1580695642 1214411901 429733086 -1334542239 1101225845 -2106567390 1733729877 2114364426 -949392409 738669077
REM
CELL 1.54180  100.00000  100.00000  100.00000   90.00000   90.00000   90.00000
LATT -1
SFAC C  
C      1  0.4328630000000  0.4225180000000  0.4527830000000 1.0
C      1  0.4531540000000  0.4335810000000  0.4250490000000 1.0
C      1  0.4250540000000  0.4532340000000  0.4310350000000 1.0
C      1  0.5656300000000  0.5754010000000  0.4518660000000 1.0
C      1  0.5687270000000  0.4243120000000  0.5468010000000 1.0
C      1  0.4310690000000  0.5765900000000  0.5471630000000 1.0
C      1  0.5470500000000  0.5687730000000  0.4236480000000 1.0
C      1  0.5468130000000  0.4326960000000  0.5774620000000 1.0
C      1  0.4518700000000  0.5682340000000  0.5788600000000 1.0
C      1  0.5786840000000  0.5477820000000  0.4316720000000 1.0
C      1  0.5744400000000  0.4526140000000  0.5665030000000 1.0
C      1  0.4240910000000  0.5485210000000  0.5661420000000 1.0
C      1  0.4318270000000  0.4213000000000  0.5481000000000 1.0
C      1  0.4515590000000  0.4352030000000  0.5755810000000 1.0
C      1  0.4235730000000  0.4536290000000  0.5681170000000 1.0
C      1  0.5681950000000  0.5755560000000  0.5467270000000 1.0
C      1  0.5681100000000  0.4207470000000  0.4518530000000 1.0
C      1  0.4319380000000  0.5768470000000  0.4524170000000 1.0
C      1  0.5473040000000  0.5685690000000  0.5783540000000 1.0
C      1  0.5481310000000  0.4346230000000  0.4245540000000 1.0
C      1  0.4518580000000  0.5681110000000  0.4211350000000 1.0
C      1  0.5744440000000  0.5473770000000  0.5649840000000 1.0
C      1  0.5765780000000  0.4526190000000  0.4312930000000 1.0
C      1  0.4233050000000  0.5482500000000  0.4333910000000 1.0
C      1  0.5985810000000  0.5059830000000  0.5468830000000 1.0
C      1  0.5472090000000  0.6002100000000  0.5077000000000 1.0
C      1  0.5080010000000  0.5484240000000  0.6021740000000 1.0
C      1  0.3993060000000  0.4929150000000  0.5474600000000 1.0
C      1  0.4010400000000  0.5063890000000  0.4523280000000 1.0
C      1  0.6012660000000  0.4915020000000  0.4517560000000 1.0
C      1  0.4510510000000  0.3991590000000  0.5064960000000 1.0
C      1  0.4513290000000  0.5991920000000  0.4936370000000 1.0
C      1  0.5489090000000  0.3992940000000  0.4937320000000 1.0
C      1  0.4928130000000  0.4524520000000  0.6000170000000 1.0
C      1  0.4937130000000  0.5486920000000  0.4001430000000 1.0
C      1  0.5068420000000  0.4528740000000  0.4009010000000 1.0
C      1  0.5998720000000  0.5058930000000  0.4512990000000 1.0
C      1  0.5475120000000  0.5988430000000  0.4933060000000 1.0
C      1  0.5081230000000  0.5481740000000  0.3989330000000 1.0
C      1  0.4001570000000  0.4919630000000  0.4528400000000 1.0
C      1  0.4007670000000  0.5073010000000  0.5477280000000 1.0
C      1  0.6000240000000  0.4915800000000  0.5466360000000 1.0
C      1  0.4516750000000  0.3976410000000  0.4920730000000 1.0
C      1  0.4518670000000  0.6007210000000  0.5080080000000 1.0
C      1  0.5482500000000  0.3982630000000  0.5081800000000 1.0
C      1  0.4924270000000  0.4532210000000  0.3995120000000 1.0
C      1  0.4935740000000  0.5489270000000  0.6006730000000 1.0
C      1  0.5072190000000  0.4525550000000  0.6016820000000 1.0
C      1  0.5717540000000  0.4750600000000  0.5753350000000 1.0
C      1  0.5742320000000  0.5694640000000  0.4731300000000 1.0
C      1  0.4732480000000  0.5763350000000  0.5720860000000 1.0
C      1  0.4303900000000  0.5271900000000  0.5745210000000 1.0
C      1  0.4260890000000  0.4758250000000  0.4220320000000 1.0
C      1  0.5721820000000  0.5264990000000  0.4230990000000 1.0
C      1  0.4257420000000  0.4269430000000  0.4756740000000 1.0
C      1  0.4220590000000  0.5742500000000  0.5247590000000 1.0
C      1  0.5779340000000  0.4248820000000  0.5243600000000 1.0
C      1  0.5240880000000  0.4257860000000  0.5723540000000 1.0
C      1  0.5245140000000  0.5775730000000  0.4261550000000 1.0
C      1  0.4756240000000  0.4252280000000  0.4283020000000 1.0
C      1  0.5741320000000  0.4750770000000  0.4222940000000 1.0
C      1  0.5769990000000  0.5730910000000  0.5242240000000 1.0
C      1  0.4730560000000  0.5760520000000  0.4285810000000 1.0
C      1  0.4299150000000  0.5269210000000  0.4254430000000 1.0
C      1  0.4265080000000  0.4760650000000  0.5769840000000 1.0
C      1  0.5688760000000  0.5260830000000  0.5737450000000 1.0
C      1  0.4224390000000  0.4270660000000  0.5269550000000 1.0
C      1  0.4212970000000  0.5726630000000  0.4734010000000 1.0
C      1  0.5774030000000  0.4268270000000  0.4729640000000 1.0
C      1  0.5267190000000  0.4273100000000  0.4318060000000 1.0
C      1  0.5246500000000  0.5762700000000  0.5740850000000 1.0
C      1  0.4729920000000  0.4278510000000  0.5684450000000 1.0
C      1  0.4870060000000  0.5604280000000  0.5955490000000 1.0
C      1  0.5967500000000  0.4834620000000  0.5579120000000 1.0
C      1  0.5585950000000  0.5932600000000  0.4865680000000 1.0
C      1  0.5153600000000  0.4412110000000  0.5984200000000 1.0
C      1  0.5161940000000  0.5597790000000  0.4014110000000 1.0
C      1  0.4842270000000  0.4420480000000  0.4029910000000 1.0
C      1  0.4064590000000  0.5139470000000  0.5588300000000 1.0
C      1  0.4028110000000  0.4838610000000  0.4412850000000 1.0
C      1  0.5950820000000  0.5125160000000  0.4396770000000 1.0
C      1  0.4404880000000  0.4004270000000  0.4836000000000 1.0
C      1  0.4402510000000  0.5986940000000  0.5161670000000 1.0
C      1  0.5595410000000  0.4010510000000  0.5165310000000 1.0
C      1  0.4871030000000  0.5602750000000  0.4050300000000 1.0
C      1  0.5989060000000  0.4834230000000  0.4401550000000 1.0
C      1  0.5586430000000  0.5973060000000  0.5157980000000 1.0
C      1  0.5134180000000  0.4420510000000  0.4071910000000 1.0
C      1  0.5161700000000  0.5600690000000  0.5998970000000 1.0
C      1  0.4861490000000  0.4418340000000  0.5935110000000 1.0
C      1  0.4061500000000  0.5131170000000  0.4409760000000 1.0
C      1  0.4019530000000  0.4848970000000  0.5590190000000 1.0
C      1  0.5925610000000  0.5126640000000  0.5578090000000 1.0
C      1  0.4394540000000  0.4042750000000  0.5129270000000 1.0
C      1  0.4396110000000  0.5945330000000  0.4871280000000 1.0
C      1  0.5606030000000  0.4040090000000  0.4871590000000 1.0
C      1  0.5794240000000  0.4281940000000  0.4869750000000 1.0
C      1  0.4870920000000  0.5780060000000  0.4299690000000 1.0
C      1  0.4286820000000  0.4902390000000  0.5785570000000 1.0
C      1  0.4193310000000  0.5714310000000  0.4874200000000 1.0
C      1  0.4211220000000  0.4287570000000  0.5129320000000 1.0
C      1  0.5785060000000  0.5710140000000  0.5100200000000 1.0
C      1  0.5127280000000  0.4250290000000  0.4329920000000 1.0
C      1  0.5105130000000  0.5782210000000  0.5721700000000 1.0
C      1  0.4870140000000  0.4256620000000  0.5672500000000 1.0
C      1  0.5679700000000  0.5122420000000  0.5765060000000 1.0
C      1  0.5724060000000  0.4892890000000  0.4204160000000 1.0
C      1  0.4309120000000  0.5129880000000  0.4227570000000 1.0
C      1  0.5799810000000  0.4266220000000  0.5101570000000 1.0
C      1  0.4873050000000  0.5780070000000  0.5705210000000 1.0
C      1  0.4283490000000  0.4900320000000  0.4207670000000 1.0
C      1  0.4197920000000  0.5726760000000  0.5105840000000 1.0
C      1  0.4228170000000  0.4283510000000  0.4897410000000 1.0
C      1  0.5770620000000  0.5686950000000  0.4869990000000 1.0
C      1  0.5100070000000  0.4243330000000  0.5698780000000 1.0
C      1  0.5102760000000  0.5791390000000  0.4280690000000 1.0
C      1  0.4897420000000  0.4234710000000  0.4304380000000 1.0
C      1  0.5707800000000  0.5124910000000  0.4210740000000 1.0
C      1  0.5700200000000  0.4891940000000  0.5774630000000 1.0
C      1  0.4312010000000  0.5132590000000  0.5771770000000 1.0
C      1  0.4403070000000  0.5700110000000  0.5863530000000 1.0
C      1  0.5810610000000  0.4441130000000  0.5743690000000 1.0
C      1  0.5726010000000  0.5826070000000  0.4430740000000 1.0
C      1  0.5581690000000  0.4307410000000  0.5853480000000 1.0
C      1  0.5570160000000  0.5778870000000  0.4207410000000 1.0
C      1  0.4446160000000  0.4258190000000  0.4183840000000 1.0
C      1  0.4167210000000  0.5575890000000  0.5725920000000 1.0
C      1  0.4224540000000  0.4433640000000  0.4215580000000 1.0
C      1  0.5861640000000  0.5593550000000  0.4300260000000 1.0
C      1  0.4310910000000  0.4147600000000  0.4412700000000 1.0
C      1  0.4220570000000  0.5797560000000  0.5571570000000 1.0
C      1  0.5781780000000  0.4218570000000  0.5567710000000 1.0
C      1  0.4403370000000  0.5700920000000  0.4135970000000 1.0
C      1  0.5795480000000  0.4426830000000  0.4221790000000 1.0
C      1  0.5776480000000  0.5783900000000  0.5564490000000 1.0
C      1  0.5570040000000  0.4284650000000  0.4166840000000 1.0
C      1  0.5591680000000  0.5697230000000  0.5857180000000 1.0
C      1  0.4424270000000  0.4294450000000  0.5834610000000 1.0
C      1  0.4162260000000  0.5578030000000  0.4272460000000 1.0
C      1  0.4202550000000  0.4438650000000  0.5772980000000 1.0
C      1  0.5818050000000  0.5559000000000  0.5721300000000 1.0
C      1  0.4306070000000  0.4143040000000  0.5600200000000 1.0
C      1  0.4228630000000  0.5801980000000  0.4424860000000 1.0
C      1  0.5691280000000  0.4134740000000  0.4400520000000 1.0
C      1  0.5613850000000  0.5633240000000  0.4446630000000 1.0
C      1  0.4467900000000  0.5634180000000  0.5653800000000 1.0
C      1  0.5631010000000  0.4455930000000  0.5608750000000 1.0
C      1  0.4382020000000  0.4355480000000  0.4474790000000 1.0
C      1  0.4397820000000  0.5661320000000  0.5534210000000 1.0
C      1  0.5599010000000  0.4347270000000  0.5528020000000 1.0
C      1  0.5522270000000  0.4376320000000  0.5643450000000 1.0
C      1  0.5532590000000  0.5598630000000  0.4339410000000 1.0
C      1  0.4461740000000  0.4389480000000  0.4365640000000 1.0
C      1  0.4361350000000  0.5554810000000  0.5615970000000 1.0
C      1  0.4354260000000  0.4471180000000  0.4398140000000 1.0
C      1  0.5652080000000  0.5527890000000  0.4365950000000 1.0
C      1  0.5591440000000  0.5655230000000  0.5530340000000 1.0
C      1  0.4466320000000  0.5627930000000  0.4343350000000 1.0
C      1  0.5662320000000  0.4464810000000  0.4402030000000 1.0
C      1  0.4366200000000  0.4350120000000  0.5527060000000 1.0
C      1  0.4397400000000  0.5654100000000  0.4463100000000 1.0
C      1  0.5634550000000  0.4344430000000  0.4471250000000 1.0
C      1  0.5554280000000  0.4385120000000  0.4366800000000 1.0
C      1  0.5518720000000  0.5630610000000  0.5650080000000 1.0
C      1  0.4445280000000  0.4390470000000  0.5632470000000 1.0
C      1  0.4356700000000  0.5551330000000  0.4378440000000 1.0
C      1  0.4339520000000  0.4471970000000  0.5594470000000 1.0
C      1  0.5623420000000  0.5548730000000  0.5612020000000 1.0
C      1  0.5916650000000  0.4460560000000  0.5276090000000 1.0
C      1  0.5277800000000  0.5904450000000  0.4480780000000 1.0
C      1  0.4509660000000  0.5294630000000  0.5882840000000 1.0
C      1  0.4090190000000  0.5524820000000  0.5282330000000 1.0
C      1  0.4126600000000  0.4484800000000  0.4722520000000 1.0
C      1  0.5877870000000  0.5487670000000  0.4706210000000 1.0
C      1  0.4720960000000  0.4100730000000  0.4483770000000 1.0
C      1  0.4710650000000  0.5897970000000  0.5512340000000 1.0
C      1  0.5277850000000  0.4115720000000  0.5514520000000 1.0
C      1  0.5519270000000  0.4716290000000  0.5908450000000 1.0
C      1  0.5513660000000  0.5288920000000  0.4095640000000 1.0
C      1  0.4469800000000  0.4726400000000  0.4077810000000 1.0
C      1  0.5910880000000  0.4475710000000  0.4705980000000 1.0
C      1  0.5281130000000  0.5896920000000  0.5526180000000 1.0
C      1  0.4506840000000  0.5294570000000  0.4119460000000 1.0
C      1  0.4079540000000  0.5514500000000  0.4711210000000 1.0
C      1  0.4087560000000  0.4478440000000  0.5292580000000 1.0
C      1  0.5906100000000  0.5515550000000  0.5276300000000 1.0
C      1  0.4708130000000  0.4141060000000  0.5478980000000 1.0
C      1  0.4706790000000  0.5881920000000  0.4503220000000 1.0
C      1  0.5290310000000  0.4132900000000  0.4522200000000 1.0
C      1  0.5525280000000  0.4717900000000  0.4088910000000 1.0
C      1  0.5494950000000  0.5286690000000  0.5891040000000 1.0
C      1  0.4478150000000  0.4724630000000  0.5909110000000 1.0
C      1  0.5326290000000  0.6008410000000  0.5076300000000 1.0
C      1  0.5077560000000  0.5338040000000  0.6022050000000 1.0
C      1  0.6002050000000  0.5064850000000  0.5323260000000 1.0
C      1  0.4657400000000  0.3988580000000  0.5071900000000 1.0
C      1  0.4660300000000  0.5993890000000  0.4929870000000 1.0
C      1  0.5342030000000  0.3989590000000  0.4929950000000 1.0
C      1  0.4923530000000  0.4670050000000  0.6016450000000 1.0
C      1  0.4930520000000  0.5340020000000  0.3995890000000 1.0
C      1  0.5074770000000  0.4674090000000  0.3991330000000 1.0
C      1  0.3987930000000  0.4929300000000  0.5328680000000 1.0
C      1  0.4001600000000  0.5071600000000  0.4669700000000 1.0
C      1  0.6012750000000  0.4915730000000  0.4663760000000 1.0
C      1  0.5328980000000  0.5999210000000  0.4927610000000 1.0
C      1  0.5079560000000  0.5335440000000  0.3988390000000 1.0
C      1  0.6002680000000  0.5064690000000  0.4660000000000 1.0
C      1  0.4662330000000  0.3976620000000  0.4923720000000 1.0
C      1  0.4664740000000  0.6004460000000  0.5078310000000 1.0
C      1  0.5336770000000  0.3982900000000  0.5078630000000 1.0
C      1  0.4925780000000  0.4677400000000  0.3982590000000 1.0
C      1  0.4928960000000  0.5342500000000  0.6011150000000 1.0
C      1  0.5072080000000  0.4670930000000  0.6028070000000 1.0
C      1  0.3997900000000  0.4922290000000  0.4674440000000 1.0
C      1  0.3995820000000  0.5078250000000  0.5331080000000 1.0
C      1  0.6011650000000  0.4915940000000  0.5321060000000 1.0
C      1  0.5691470000000  0.4230300000000  0.4192450000000 1.0
C      1  0.4193840000000  0.5701650000000  0.4225960000000 1.0
C      1  0.4287950000000  0.4126960000000  0.5725530000000 1.0
C      1  0.4279070000000  0.5721130000000  0.4115080000000 1.0
C      1  0.4302930000000  0.4241030000000  0.5806930000000 1.0
C      1  0.5716320000000  0.5712190000000  0.5876140000000 1.0
C      1  0.5800220000000  0.4315910000000  0.4158370000000 1.0
C      1  0.5800540000000  0.5685820000000  0.5765860000000 1.0
C      1  0.4194620000000  0.4328450000000  0.5837340000000 1.0
C      1  0.5840250000000  0.5788110000000  0.5675090000000 1.0
C      1  0.5707360000000  0.4117250000000  0.4275150000000 1.0
C      1  0.4164460000000  0.5808840000000  0.4315100000000 1.0
C      1  0.5703330000000  0.4281710000000  0.5879390000000 1.0
C      1  0.4193550000000  0.5700200000000  0.5772540000000 1.0
C      1  0.4286630000000  0.4121710000000  0.4290740000000 1.0
C      1  0.4278770000000  0.5721250000000  0.5882920000000 1.0
C      1  0.4315930000000  0.4226080000000  0.4200300000000 1.0
C      1  0.5681120000000  0.5841900000000  0.4201690000000 1.0
C      1  0.5794590000000  0.4310800000000  0.5775810000000 1.0
C      1  0.5881190000000  0.5718160000000  0.4281400000000 1.0
C      1  0.4219090000000  0.4320510000000  0.4156630000000 1.0
C      1  0.5771260000000  0.5803110000000  0.4305170000000 1.0
C      1  0.5839090000000  0.4214050000000  0.5681670000000 1.0
C      1  0.4157980000000  0.5805010000000  0.5682710000000 1.0
C      1  0.4725270000000  0.4428910000000  0.5888760000000 1.0
C      1  0.5927640000000  0.4703340000000  0.4397130000000 1.0
C      1  0.4398420000000  0.5897680000000  0.4735240000000 1.0
C      1  0.5294520000000  0.5605690000000  0.5941850000000 1.0
C      1  0.5271270000000  0.4427690000000  0.4116510000000 1.0
C      1  0.4733530000000  0.5601050000000  0.4091050000000 1.0
C      1  0.4103280000000  0.5269530000000  0.4414980000000 1.0
C      1  0.4078440000000  0.4716980000000  0.5594340000000 1.0
C      1  0.5878670000000  0.5263260000000  0.5569750000000 1.0
C      1  0.5604550000000  0.4083290000000  0.4734010000000 1.0
C      1  0.5589410000000  0.5911190000000  0.5288600000000 1.0
C      1  0.4395870000000  0.4087830000000  0.5266040000000 1.0
C      1  0.4711890000000  0.4421560000000  0.4092580000000 1.0
C      1  0.5903270000000  0.4705010000000  0.5579550000000 1.0
C      1  0.4397490000000  0.5926070000000  0.5292870000000 1.0
C      1  0.5292840000000  0.5602260000000  0.4075480000000 1.0
C      1  0.5286750000000  0.4411000000000  0.5928210000000 1.0
C      1  0.4732610000000  0.5602170000000  0.5913230000000 1.0
C      1  0.4111750000000  0.5275560000000  0.5580590000000 1.0
C      1  0.4091970000000  0.4708880000000  0.4407320000000 1.0
C      1  0.5908750000000  0.5262670000000  0.4398420000000 1.0
C      1  0.5595010000000  0.4077370000000  0.5293860000000 1.0
C      1  0.5576640000000  0.5885480000000  0.4729380000000 1.0
C      1  0.4408460000000  0.4065360000000  0.4705240000000 1.0
C      1  0.5423410000000  0.5384210000000  0.5957480000000 1.0
C      1  0.5939020000000  0.5420620000000  0.5373370000000 1.0
C      1  0.5386370000000  0.5941340000000  0.5446880000000 1.0
C      1  0.4569900000000  0.4626290000000  0.5946400000000 1.0
C      1  0.4594480000000  0.5387850000000  0.4068270000000 1.0
C      1  0.5430080000000  0.4621720000000  0.4055540000000 1.0
C      1  0.4037750000000  0.4559890000000  0.5393040000000 1.0
C      1  0.4042380000000  0.5421040000000  0.4615150000000 1.0
C      1  0.5963880000000  0.4552220000000  0.4603300000000 1.0
C      1  0.4614960000000  0.4082460000000  0.5396260000000 1.0
C      1  0.4611350000000  0.5928580000000  0.4592680000000 1.0
C      1  0.5384360000000  0.4075270000000  0.4604960000000 1.0
C      1  0.5439360000000  0.5392640000000  0.4041650000000 1.0
C      1  0.5930000000000  0.5400650000000  0.4612840000000 1.0
C      1  0.5375700000000  0.5938020000000  0.4574680000000 1.0
C      1  0.4556040000000  0.4623200000000  0.4042580000000 1.0
C      1  0.4595580000000  0.5387820000000  0.5936970000000 1.0
C      1  0.5437210000000  0.4618290000000  0.5961990000000 1.0
C      1  0.4076520000000  0.4558230000000  0.4616260000000 1.0
C      1  0.4058320000000  0.5431240000000  0.5380600000000 1.0
C      1  0.5950620000000  0.4548180000000  0.5378230000000 1.0
C      1  0.4622190000000  0.4043190000000  0.4562230000000 1.0
C      1  0.4608900000000  0.5954750000000  0.5437640000000 1.0
C      1  0.5384240000000  0.4062300000000  0.5442830000000 1.0
C      1  0.4148880000000  0.5624250000000  0.4668570000000 1.0
C      1  0.4661200000000  0.4221140000000  0.5580190000000 1.0
C      1  0.5637640000000  0.4685580000000  0.4158400000000 1.0
C      1  0.5832040000000  0.4372770000000  0.4661760000000 1.0
C      1  0.5838420000000  0.5629560000000  0.5307320000000 1.0
C      1  0.4162480000000  0.4373140000000  0.5336700000000 1.0
C      1  0.5310600000000  0.5820130000000  0.5633660000000 1.0
C      1  0.5336230000000  0.4214300000000  0.4421430000000 1.0
C      1  0.4662320000000  0.5809470000000  0.4395200000000 1.0
C      1  0.4403710000000  0.5339030000000  0.4198560000000 1.0
C      1  0.4365820000000  0.4694250000000  0.5838170000000 1.0
C      1  0.5589990000000  0.5330720000000  0.5802000000000 1.0
C      1  0.4159030000000  0.5637880000000  0.5314040000000 1.0
C      1  0.4686010000000  0.4180860000000  0.4378620000000 1.0
C      1  0.5622170000000  0.4681230000000  0.5825800000000 1.0
C      1  0.5847610000000  0.4348850000000  0.5307670000000 1.0
C      1  0.5798520000000  0.5590380000000  0.4661910000000 1.0
C      1  0.4209250000000  0.4381390000000  0.4694120000000 1.0
C      1  0.5310250000000  0.5839940000000  0.4365370000000 1.0
C      1  0.5306780000000  0.4195350000000  0.5620250000000 1.0
C      1  0.4665000000000  0.5820380000000  0.5615690000000 1.0
C      1  0.4408250000000  0.5340500000000  0.5802370000000 1.0
C      1  0.4356960000000  0.4694910000000  0.4145450000000 1.0
C      1  0.5616680000000  0.5332740000000  0.4174450000000 1.0
C      1  0.4765730000000  0.3987720000000  0.4833170000000 1.0
C      1  0.4826640000000  0.4773850000000  0.3985750000000 1.0
C      1  0.4007330000000  0.4827090000000  0.4774360000000 1.0
C      1  0.5231920000000  0.5987450000000  0.4830340000000 1.0
C      1  0.5233090000000  0.3996550000000  0.5168270000000 1.0
C      1  0.4767870000000  0.5994850000000  0.5169960000000 1.0
C      1  0.5171820000000  0.5232470000000  0.3996980000000 1.0
C      1  0.5169830000000  0.4768540000000  0.6024260000000 1.0
C      1  0.4836660000000  0.5240690000000  0.5995350000000 1.0
C      1  0.5988160000000  0.5158370000000  0.4760570000000 1.0
C      1  0.6009540000000  0.4815540000000  0.5225630000000 1.0
C      1  0.4003430000000  0.5176610000000  0.5234430000000 1.0
C      1  0.4759800000000  0.4008620000000  0.5162170000000 1.0
C      1  0.4827000000000  0.4767850000000  0.6004570000000 1.0
C      1  0.3995630000000  0.4830950000000  0.5231560000000 1.0
C      1  0.5228730000000  0.6002100000000  0.5173960000000 1.0
C      1  0.5239100000000  0.4005180000000  0.4839480000000 1.0
C      1  0.4761880000000  0.5978780000000  0.4837520000000 1.0
C      1  0.5166420000000  0.5232300000000  0.6013590000000 1.0
C      1  0.5174930000000  0.4768730000000  0.3998890000000 1.0
C      1  0.4836460000000  0.5239400000000  0.4007490000000 1.0
C      1  0.5993830000000  0.5163970000000  0.5227820000000 1.0
C      1  0.6005450000000  0.4821280000000  0.4764860000000 1.0
C      1  0.4008170000000  0.5170230000000  0.4766340000000 1.0
C      1  0.4287610000000  0.5923690000000  0.4967010000000 1.0
C      1  0.4957570000000  0.4315790000000  0.5896800000000 1.0
C      1  0.5989070000000  0.4909990000000  0.4287630000000 1.0
C      1  0.5711210000000  0.4068770000000  0.4968220000000 1.0
C      1  0.5699690000000  0.5971670000000  0.5080010000000 1.0
C      1  0.4292230000000  0.4075180000000  0.5030880000000 1.0
C      1  0.5084890000000  0.5713740000000  0.5992470000000 1.0
C      1  0.5037700000000  0.4317720000000  0.4108730000000 1.0
C      1  0.4966450000000  0.5708360000000  0.4081570000000 1.0
C      1  0.4091520000000  0.5036480000000  0.4303410000000 1.0
C      1  0.4023620000000  0.4926800000000  0.5702990000000 1.0
C      1  0.5894460000000  0.5031200000000  0.5683930000000 1.0
C      1  0.4288610000000  0.5990410000000  0.5086250000000 1.0
C      1  0.4919270000000  0.4306900000000  0.4039240000000 1.0
C      1  0.5962940000000  0.4912350000000  0.5692160000000 1.0
C      1  0.5710730000000  0.4006180000000  0.5090780000000 1.0
C      1  0.5693830000000  0.5904120000000  0.4960350000000 1.0
C      1  0.4289710000000  0.4010950000000  0.4910010000000 1.0
C      1  0.5086280000000  0.5711950000000  0.4014910000000 1.0
C      1  0.5074430000000  0.4300850000000  0.5968110000000 1.0
C      1  0.4966860000000  0.5707950000000  0.5923150000000 1.0
C      1  0.4093630000000  0.5044690000000  0.5695670000000 1.0
C      1  0.4024510000000  0.4916020000000  0.4299210000000 1.0
C      1  0.5922410000000  0.5029610000000  0.4290370000000 1.0
C      1  0.5070910000000  0.4073600000000  0.5359980000000 1.0
C      1  0.5373240000000  0.5072250000000  0.4051940000000 1.0
C      1  0.4047650000000  0.5380230000000  0.5072940000000 1.0
C      1  0.4926900000000  0.5937950000000  0.5371380000000 1.0
C      1  0.4926440000000  0.4061550000000  0.4638740000000 1.0
C      1  0.5069790000000  0.5934250000000  0.4629810000000 1.0
C      1  0.4625680000000  0.4932570000000  0.4047050000000 1.0
C      1  0.4638460000000  0.5077400000000  0.5938960000000 1.0
C      1  0.5370180000000  0.4923930000000  0.5954720000000 1.0
C      1  0.5955890000000  0.4610380000000  0.5068440000000 1.0
C      1  0.5933850000000  0.5358330000000  0.4922480000000 1.0
C      1  0.4067350000000  0.4625400000000  0.4933430000000 1.0
C      1  0.5072510000000  0.4069460000000  0.4648340000000 1.0
C      1  0.5362180000000  0.5069880000000  0.5949890000000 1.0
C      1  0.4046320000000  0.5375490000000  0.4926800000000 1.0
C      1  0.4923950000000  0.5928860000000  0.4636900000000 1.0
C      1  0.4925140000000  0.4080320000000  0.5352210000000 1.0
C      1  0.5072400000000  0.5939870000000  0.5376850000000 1.0
C      1  0.4629470000000  0.4931190000000  0.5944730000000 1.0
C      1  0.4634660000000  0.5078290000000  0.4057530000000 1.0
C      1  0.5379690000000  0.4926410000000  0.4050460000000 1.0
C      1  0.5953620000000  0.4616670000000  0.4922620000000 1.0
C      1  0.5939530000000  0.5366040000000  0.5068470000000 1.0
C      1  0.4058530000000  0.4625620000000  0.5078860000000 1.0
C      1  0.4084910000000  0.5497010000000  0.5143060000000 1.0
C      1  0.5140700000000  0.4116120000000  0.5475150000000 1.0
C      1  0.5485400000000  0.5148290000000  0.4094180000000 1.0
C      1  0.5918790000000  0.4493190000000  0.5137340000000 1.0
C      1  0.5885440000000  0.5467230000000  0.4847010000000 1.0
C      1  0.4114600000000  0.4513210000000  0.4861710000000 1.0
C      1  0.4851100000000  0.5896180000000  0.5483620000000 1.0
C      1  0.4857780000000  0.4104010000000  0.4522760000000 1.0
C      1  0.5139260000000  0.5902010000000  0.4511720000000 1.0
C      1  0.4507400000000  0.4863950000000  0.4082110000000 1.0
C      1  0.4530280000000  0.5153640000000  0.5889510000000 1.0
C      1  0.5484440000000  0.4854300000000  0.5909250000000 1.0
C      1  0.4081080000000  0.5489980000000  0.4851680000000 1.0
C      1  0.5149190000000  0.4125300000000  0.4543330000000 1.0
C      1  0.5468930000000  0.5146250000000  0.5896570000000 1.0
C      1  0.5911730000000  0.4504160000000  0.4846680000000 1.0
C      1  0.5904260000000  0.5483650000000  0.5137840000000 1.0
C      1  0.4093590000000  0.4510630000000  0.5153150000000 1.0
C      1  0.4847900000000  0.5886210000000  0.4525380000000 1.0
C      1  0.4849270000000  0.4135300000000  0.5457650000000 1.0
C      1  0.5142630000000  0.5900050000000  0.5492470000000 1.0
C      1  0.4511870000000  0.4862730000000  0.5907470000000 1.0
C      1  0.4526870000000  0.5153450000000  0.4109760000000 1.0
C      1  0.5496430000000  0.4856960000000  0.4087330000000 1.0
C      1  0.5663440000000  0.5483940000000  0.4954790000000 1.0
C      1  0.4948560000000  0.5669150000000  0.5497790000000 1.0
C      1  0.5482700000000  0.4917100000000  0.5676320000000 1.0
C      1  0.4336120000000  0.4494200000000  0.4957620000000 1.0
C      1  0.4311100000000  0.5518640000000  0.5064980000000 1.0
C      1  0.5689300000000  0.4476490000000  0.5070660000000 1.0
C      1  0.5089280000000  0.4347970000000  0.5482150000000 1.0
C      1  0.5080090000000  0.5671950000000  0.4486500000000 1.0
C      1  0.4909970000000  0.4337820000000  0.4519810000000 1.0
C      1  0.4516690000000  0.5045280000000  0.5667020000000 1.0
C      1  0.4495850000000  0.4910560000000  0.4316010000000 1.0
C      1  0.5501950000000  0.5051210000000  0.4319880000000 1.0
C      1  0.5671990000000  0.5499590000000  0.5080850000000 1.0
C      1  0.4953960000000  0.5664390000000  0.4501840000000 1.0
C      1  0.5514230000000  0.4924160000000  0.4316630000000 1.0
C      1  0.4325030000000  0.4494890000000  0.5085440000000 1.0
C      1  0.4309580000000  0.5511060000000  0.4937500000000 1.0
C      1  0.5685780000000  0.4488600000000  0.4943690000000 1.0
C      1  0.5035000000000  0.4346620000000  0.4541320000000 1.0
C      1  0.5075670000000  0.5671740000000  0.5509940000000 1.0
C      1  0.4963970000000  0.4356850000000  0.5461650000000 1.0
C      1  0.4515980000000  0.5035160000000  0.4328620000000 1.0
C      1  0.4498890000000  0.4919490000000  0.5675090000000 1.0
C      1  0.5468230000000  0.5043850000000  0.5671360000000 1.0
C      1  0.5147270000000  0.4025000000000  0.5251760000000 1.0
C      1  0.5256480000000  0.5144470000000  0.4015970000000 1.0
C      1  0.4017160000000  0.5267450000000  0.5152070000000 1.0
C      1  0.4854670000000  0.5974520000000  0.5255280000000 1.0
C      1  0.4848530000000  0.4014430000000  0.4746210000000 1.0
C      1  0.5148760000000  0.5968990000000  0.4741240000000 1.0
C      1  0.4736550000000  0.4855240000000  0.4005890000000 1.0
C      1  0.4752950000000  0.5151630000000  0.5975690000000 1.0
C      1  0.5261700000000  0.4846740000000  0.6000490000000 1.0
C      1  0.5991820000000  0.4722600000000  0.5146870000000 1.0
C      1  0.5969420000000  0.5243750000000  0.4848090000000 1.0
C      1  0.4029380000000  0.4738280000000  0.4856880000000 1.0
C      1  0.5146640000000  0.4027450000000  0.4760370000000 1.0
C      1  0.5248800000000  0.5143060000000  0.5991750000000 1.0
C      1  0.4018520000000  0.5258630000000  0.4852250000000 1.0
C      1  0.4850700000000  0.5961290000000  0.4753230000000 1.0
C      1  0.4850710000000  0.4035470000000  0.5241460000000 1.0
C      1  0.5148750000000  0.5979970000000  0.5264790000000 1.0
C      1  0.4738680000000  0.4851360000000  0.5983970000000 1.0
C      1  0.4749640000000  0.5152810000000  0.4023920000000 1.0
C      1  0.5268320000000  0.4847310000000  0.4016120000000 1.0
C      1  0.5987950000000  0.4734000000000  0.4850560000000 1.0
C      1  0.5976240000000  0.5255090000000  0.5146780000000 1.0
C      1  0.4018040000000  0.4740680000000  0.5150690000000 1.0
C      1  0.5817150000000  0.5334510000000  0.4312330000000 1.0
C      1  0.4309690000000  0.5821120000000  0.5331820000000 1.0
C      1  0.5327190000000  0.4329850000000  0.5817080000000 1.0
C      1  0.4190730000000  0.4670430000000  0.4312630000000 1.0
C      1  0.4213360000000  0.5337310000000  0.5657680000000 1.0
C      1  0.5793070000000  0.4671610000000  0.5660320000000 1.0
C      1  0.5686310000000  0.4179530000000  0.5331230000000 1.0
C      1  0.5652420000000  0.5783240000000  0.4666770000000 1.0
C      1  0.4328530000000  0.4177970000000  0.4667450000000 1.0
C      1  0.4661800000000  0.5685850000000  0.5818720000000 1.0
C      1  0.4677320000000  0.4341950000000  0.4203520000000 1.0
C      1  0.5330800000000  0.5689090000000  0.4181570000000 1.0
C      1  0.5774490000000  0.5325140000000  0.5644440000000 1.0
C      1  0.4310150000000  0.5807870000000  0.4666980000000 1.0
C      1  0.5333470000000  0.4354180000000  0.4221500000000 1.0
C      1  0.4184030000000  0.4677270000000  0.5681400000000 1.0
C      1  0.4204950000000  0.5334510000000  0.4338940000000 1.0
C      1  0.5820860000000  0.4665880000000  0.4310970000000 1.0
C      1  0.5689870000000  0.4174720000000  0.4660900000000 1.0
C      1  0.5680800000000  0.5809200000000  0.5327330000000 1.0
C      1  0.4309570000000  0.4178780000000  0.5338830000000 1.0
C      1  0.4661680000000  0.5685600000000  0.4184230000000 1.0
C      1  0.4663090000000  0.4357870000000  0.5781920000000 1.0
C      1  0.5334240000000  0.5688430000000  0.5831410000000 1.0
C      1  0.4424420000000  0.4934290000000  0.5819510000000 1.0
C      1  0.5829280000000  0.4412520000000  0.4917720000000 1.0
C      1  0.4920280000000  0.5810440000000  0.4430130000000 1.0
C      1  0.5553350000000  0.5073660000000  0.5809390000000 1.0
C      1  0.5587350000000  0.4928950000000  0.4171080000000 1.0
C      1  0.4435640000000  0.5079580000000  0.4187550000000 1.0
C      1  0.4162410000000  0.5583070000000  0.4921500000000 1.0
C      1  0.4181270000000  0.4420860000000  0.5085130000000 1.0
C      1  0.5817520000000  0.5572520000000  0.5067120000000 1.0
C      1  0.5076380000000  0.4208340000000  0.4455850000000 1.0
C      1  0.5069920000000  0.5815880000000  0.5584030000000 1.0
C      1  0.4921590000000  0.4217570000000  0.5546060000000 1.0
C      1  0.4420850000000  0.4933180000000  0.4172980000000 1.0
C      1  0.5834300000000  0.4402860000000  0.5065290000000 1.0
C      1  0.4921590000000  0.5813000000000  0.5574680000000 1.0
C      1  0.5577200000000  0.5076890000000  0.4176240000000 1.0
C      1  0.5565630000000  0.4925990000000  0.5816440000000 1.0
C      1  0.4439100000000  0.5081420000000  0.5809510000000 1.0
C      1  0.4164510000000  0.5590030000000  0.5069290000000 1.0
C      1  0.4192700000000  0.4419420000000  0.4936880000000 1.0
C      1  0.5807030000000  0.5559090000000  0.4920050000000 1.0
C      1  0.5069190000000  0.4207410000000  0.5560760000000 1.0
C      1  0.5067860000000  0.5819560000000  0.4418770000000 1.0
C      1  0.4929210000000  0.4196850000000  0.4440670000000 1.0
C      1  0.4627970000000  0.4526290000000  0.4055420000000 1.0
C      1  0.4069430000000  0.4626380000000  0.4516560000000 1.0
C      1  0.4521410000000  0.4036570000000  0.4629820000000 1.0
C      1  0.5375400000000  0.5495840000000  0.4043170000000 1.0
C      1  0.5365530000000  0.4520150000000  0.5962290000000 1.0
C      1  0.4665450000000  0.5486170000000  0.5950780000000 1.0
C      1  0.5943880000000  0.5329400000000  0.4515580000000 1.0
C      1  0.5938580000000  0.4620480000000  0.5474830000000 1.0
C      1  0.4063400000000  0.5351520000000  0.5471880000000 1.0
C      1  0.5466890000000  0.5934400000000  0.4654800000000 1.0
C      1  0.5483810000000  0.4054180000000  0.5374250000000 1.0
C      1  0.4505380000000  0.5956340000000  0.5374210000000 1.0
C      1  0.4650780000000  0.4535670000000  0.5943190000000 1.0
C      1  0.4042350000000  0.4633350000000  0.5489540000000 1.0
C      1  0.4515450000000  0.4059140000000  0.5330680000000 1.0
C      1  0.5369430000000  0.5492810000000  0.5968560000000 1.0
C      1  0.5347500000000  0.4532910000000  0.4061550000000 1.0
C      1  0.4666120000000  0.5484820000000  0.4054320000000 1.0
C      1  0.5932160000000  0.5338650000000  0.5462750000000 1.0
C      1  0.5961240000000  0.4619940000000  0.4502580000000 1.0
C      1  0.4049470000000  0.5342650000000  0.4522610000000 1.0
C      1  0.5482310000000  0.5940460000000  0.5372890000000 1.0
C      1  0.5485000000000  0.4053640000000  0.4669480000000 1.0
C      1  0.4513250000000  0.5933440000000  0.4663690000000 1.0
C      1  0.4976470000000  0.4273740000000  0.5761450000000 1.0
C      1  0.5791230000000  0.5015010000000  0.4234610000000 1.0
C      1  0.4224920000000  0.5795510000000  0.4983230000000 1.0
C      1  0.5020310000000  0.4269440000000  0.4242040000000 1.0
C      1  0.4980580000000  0.5760830000000  0.4214020000000 1.0
C      1  0.4221560000000  0.5022180000000  0.4246280000000 1.0
C      1  0.4224370000000  0.5025960000000  0.5750730000000 1.0
C      1  0.5764010000000  0.5014450000000  0.5739720000000 1.0
C      1  0.5769110000000  0.4199070000000  0.4980010000000 1.0
C      1  0.4982580000000  0.5756650000000  0.5789250000000 1.0
C      1  0.5750110000000  0.5773820000000  0.4977330000000 1.0
C      1  0.4243430000000  0.4209390000000  0.5018260000000 1.0
END
