TITL C-66628-1407-5 42.1841946248767 1000000 -3951.75325207294 0 0 540 (Th) n - 1
REM
REM in /home/chem/mssmkc/work/GAP20/Larger-Clusters/Only-C240/New/BUILD-ONLY/Try2-C540
REM
REM
REM
REM
REM
REM ./C.cell (4d22446d3c8a03e2533cb19ef5564aa4)
REM
REM compiler GCC version 8.3.0
REM options -cpp -mtune=generic -march=x86-64 -g -O0
REM seed 650242135 1643421933 -142699599 1151848563 783432409 1869306120 -565253269 405908170 381895958 -2117872585 -424376461 -1997171374 345121020 1748781328 -2128924658 671530454 1581478447 -1871604332 -759295188 -1459584853 1480868186 1188793722 235381451 328872957 -663468766 1685931455 -2094061360 -1189162024 256965700 -2112335709 -817546660 226655518 1085928650
REM
CELL 1.54180  100.00000  100.00000  100.00000   90.00000   90.00000   90.00000
LATT -1
SFAC C  
C      1  0.5982060000000  0.4810590000000  0.5314560000000 1.0
C      1  0.5314560000000  0.5982050000000  0.4810540000000 1.0
C      1  0.4810580000000  0.5314600000000  0.5982040000000 1.0
C      1  0.4017950000000  0.5189430000000  0.5314570000000 1.0
C      1  0.4017950000000  0.4810560000000  0.4685450000000 1.0
C      1  0.5982050000000  0.5189420000000  0.4685420000000 1.0
C      1  0.4685440000000  0.4017940000000  0.4810600000000 1.0
C      1  0.4685430000000  0.5982060000000  0.5189400000000 1.0
C      1  0.5314570000000  0.4017960000000  0.5189460000000 1.0
C      1  0.5189440000000  0.4685460000000  0.5982060000000 1.0
C      1  0.5189420000000  0.5314540000000  0.4017940000000 1.0
C      1  0.4810560000000  0.4685400000000  0.4017960000000 1.0
C      1  0.5982050000000  0.4810570000000  0.4685430000000 1.0
C      1  0.5314560000000  0.5982060000000  0.5189400000000 1.0
C      1  0.4810560000000  0.5314540000000  0.4017940000000 1.0
C      1  0.4017940000000  0.5189410000000  0.4685440000000 1.0
C      1  0.4017950000000  0.4810580000000  0.5314580000000 1.0
C      1  0.5982050000000  0.5189440000000  0.5314550000000 1.0
C      1  0.4685440000000  0.4017950000000  0.5189460000000 1.0
C      1  0.4685430000000  0.5982050000000  0.4810540000000 1.0
C      1  0.5314570000000  0.4017940000000  0.4810600000000 1.0
C      1  0.5189420000000  0.4685410000000  0.4017960000000 1.0
C      1  0.5189440000000  0.5314600000000  0.5982040000000 1.0
C      1  0.4810580000000  0.4685460000000  0.5982060000000 1.0
C      1  0.4130920000000  0.4543350000000  0.5073120000000 1.0
C      1  0.5073100000000  0.4130900000000  0.4543370000000 1.0
C      1  0.4543340000000  0.5073080000000  0.4130920000000 1.0
C      1  0.5869080000000  0.5456660000000  0.5073080000000 1.0
C      1  0.5869090000000  0.4543350000000  0.4926900000000 1.0
C      1  0.4130910000000  0.5456640000000  0.4926890000000 1.0
C      1  0.4926890000000  0.5869070000000  0.4543320000000 1.0
C      1  0.4926900000000  0.4130930000000  0.5456680000000 1.0
C      1  0.5073100000000  0.5869100000000  0.5456620000000 1.0
C      1  0.5456640000000  0.4926870000000  0.4130910000000 1.0
C      1  0.5456660000000  0.5073130000000  0.5869080000000 1.0
C      1  0.4543360000000  0.4926920000000  0.5869090000000 1.0
C      1  0.4130920000000  0.4543340000000  0.4926920000000 1.0
C      1  0.5073110000000  0.4130930000000  0.5456680000000 1.0
C      1  0.4543360000000  0.5073130000000  0.5869090000000 1.0
C      1  0.5869080000000  0.5456650000000  0.4926880000000 1.0
C      1  0.5869090000000  0.4543360000000  0.5073110000000 1.0
C      1  0.4130910000000  0.5456650000000  0.5073100000000 1.0
C      1  0.4926890000000  0.5869100000000  0.5456630000000 1.0
C      1  0.4926900000000  0.4130900000000  0.4543370000000 1.0
C      1  0.5073100000000  0.5869070000000  0.4543320000000 1.0
C      1  0.5456660000000  0.4926920000000  0.5869080000000 1.0
C      1  0.5456640000000  0.5073080000000  0.4130910000000 1.0
C      1  0.4543340000000  0.4926870000000  0.4130920000000 1.0
C      1  0.4731860000000  0.5513410000000  0.4109510000000 1.0
C      1  0.4109530000000  0.4731880000000  0.5513460000000 1.0
C      1  0.5513440000000  0.4109510000000  0.4731890000000 1.0
C      1  0.5268120000000  0.4486530000000  0.4109530000000 1.0
C      1  0.5268130000000  0.5513470000000  0.5890460000000 1.0
C      1  0.4731880000000  0.4486580000000  0.5890500000000 1.0
C      1  0.5890480000000  0.5268150000000  0.5513430000000 1.0
C      1  0.5890480000000  0.4731860000000  0.4486560000000 1.0
C      1  0.4109520000000  0.5268110000000  0.4486560000000 1.0
C      1  0.4486550000000  0.5890470000000  0.4731850000000 1.0
C      1  0.4486570000000  0.4109530000000  0.5268160000000 1.0
C      1  0.5513440000000  0.5890490000000  0.5268100000000 1.0
C      1  0.4731880000000  0.5513470000000  0.5890470000000 1.0
C      1  0.4109520000000  0.4731850000000  0.4486570000000 1.0
C      1  0.5513450000000  0.4109530000000  0.5268150000000 1.0
C      1  0.5268140000000  0.4486590000000  0.5890490000000 1.0
C      1  0.5268120000000  0.5513420000000  0.4109500000000 1.0
C      1  0.4731870000000  0.4486530000000  0.4109540000000 1.0
C      1  0.5890470000000  0.5268120000000  0.4486540000000 1.0
C      1  0.5890490000000  0.4731890000000  0.5513440000000 1.0
C      1  0.4109520000000  0.5268140000000  0.5513440000000 1.0
C      1  0.4486560000000  0.5890490000000  0.5268110000000 1.0
C      1  0.4486560000000  0.4109510000000  0.4731900000000 1.0
C      1  0.5513430000000  0.5890470000000  0.4731840000000 1.0
C      1  0.5308460000000  0.3964530000000  0.4491720000000 1.0
C      1  0.4491680000000  0.5308420000000  0.3964540000000 1.0
C      1  0.3964550000000  0.4491700000000  0.5308480000000 1.0
C      1  0.4691530000000  0.6035440000000  0.4491670000000 1.0
C      1  0.4691550000000  0.3964560000000  0.5508340000000 1.0
C      1  0.5308460000000  0.6035470000000  0.5508270000000 1.0
C      1  0.5508300000000  0.4691510000000  0.3964550000000 1.0
C      1  0.5508310000000  0.5308490000000  0.6035440000000 1.0
C      1  0.4491700000000  0.4691570000000  0.6035470000000 1.0
C      1  0.6035450000000  0.5508320000000  0.5308430000000 1.0
C      1  0.6035450000000  0.4491690000000  0.4691550000000 1.0
C      1  0.3964540000000  0.5508290000000  0.4691540000000 1.0
C      1  0.5308470000000  0.3964560000000  0.5508330000000 1.0
C      1  0.4491700000000  0.5308490000000  0.6035450000000 1.0
C      1  0.3964550000000  0.4491680000000  0.4691570000000 1.0
C      1  0.4691540000000  0.6035470000000  0.5508280000000 1.0
C      1  0.4691540000000  0.3964530000000  0.4491730000000 1.0
C      1  0.5308450000000  0.6035440000000  0.4491660000000 1.0
C      1  0.5508320000000  0.4691580000000  0.6035460000000 1.0
C      1  0.5508300000000  0.5308430000000  0.3964530000000 1.0
C      1  0.4491690000000  0.4691510000000  0.3964560000000 1.0
C      1  0.6035450000000  0.5508300000000  0.4691520000000 1.0
C      1  0.6035460000000  0.4491710000000  0.5308460000000 1.0
C      1  0.3964550000000  0.5508310000000  0.5308450000000 1.0
C      1  0.4358250000000  0.5873200000000  0.5070970000000 1.0
C      1  0.5071000000000  0.4358280000000  0.5873220000000 1.0
C      1  0.5873190000000  0.5070970000000  0.4358250000000 1.0
C      1  0.5641750000000  0.4126810000000  0.5071010000000 1.0
C      1  0.5641740000000  0.5873200000000  0.4928980000000 1.0
C      1  0.4358260000000  0.4126800000000  0.4929040000000 1.0
C      1  0.4929010000000  0.5641770000000  0.5873180000000 1.0
C      1  0.4929010000000  0.4358230000000  0.4126820000000 1.0
C      1  0.5070980000000  0.5641720000000  0.4126780000000 1.0
C      1  0.4126800000000  0.4928990000000  0.4358260000000 1.0
C      1  0.4126810000000  0.5071000000000  0.5641750000000 1.0
C      1  0.5873200000000  0.4929030000000  0.5641740000000 1.0
C      1  0.4358250000000  0.5873190000000  0.4928990000000 1.0
C      1  0.5070990000000  0.4358230000000  0.4126820000000 1.0
C      1  0.5873200000000  0.5071010000000  0.5641740000000 1.0
C      1  0.5641750000000  0.4126800000000  0.4929030000000 1.0
C      1  0.5641740000000  0.5873200000000  0.5070960000000 1.0
C      1  0.4358260000000  0.4126800000000  0.5071020000000 1.0
C      1  0.4929000000000  0.5641720000000  0.4126780000000 1.0
C      1  0.4929020000000  0.4358280000000  0.5873220000000 1.0
C      1  0.5070990000000  0.5641770000000  0.5873180000000 1.0
C      1  0.4126810000000  0.4929020000000  0.5641760000000 1.0
C      1  0.4126800000000  0.5070970000000  0.4358260000000 1.0
C      1  0.5873190000000  0.4929000000000  0.4358250000000 1.0
C      1  0.4830870000000  0.5942240000000  0.4627330000000 1.0
C      1  0.4627370000000  0.4830900000000  0.5942260000000 1.0
C      1  0.5942250000000  0.4627360000000  0.4830880000000 1.0
C      1  0.5169130000000  0.4057740000000  0.4627380000000 1.0
C      1  0.5169120000000  0.5942260000000  0.5372610000000 1.0
C      1  0.4830880000000  0.4057760000000  0.5372670000000 1.0
C      1  0.5372650000000  0.5169150000000  0.5942240000000 1.0
C      1  0.5372640000000  0.4830850000000  0.4057750000000 1.0
C      1  0.4627350000000  0.5169090000000  0.4057750000000 1.0
C      1  0.4057740000000  0.5372630000000  0.4830870000000 1.0
C      1  0.4057750000000  0.4627360000000  0.5169140000000 1.0
C      1  0.5942250000000  0.5372650000000  0.5169100000000 1.0
C      1  0.4830870000000  0.5942260000000  0.5372620000000 1.0
C      1  0.4627350000000  0.4830850000000  0.4057760000000 1.0
C      1  0.5942260000000  0.4627370000000  0.5169130000000 1.0
C      1  0.5169130000000  0.4057760000000  0.5372670000000 1.0
C      1  0.5169120000000  0.5942240000000  0.4627330000000 1.0
C      1  0.4830880000000  0.4057740000000  0.4627390000000 1.0
C      1  0.5372630000000  0.5169100000000  0.4057740000000 1.0
C      1  0.5372650000000  0.4830910000000  0.5942250000000 1.0
C      1  0.4627360000000  0.5169150000000  0.5942250000000 1.0
C      1  0.4057750000000  0.5372640000000  0.5169120000000 1.0
C      1  0.4057750000000  0.4627350000000  0.4830900000000 1.0
C      1  0.5942250000000  0.5372640000000  0.4830860000000 1.0
C      1  0.4021900000000  0.4772540000000  0.5178060000000 1.0
C      1  0.5178050000000  0.4021890000000  0.4772570000000 1.0
C      1  0.4772530000000  0.5178010000000  0.4021890000000 1.0
C      1  0.5978110000000  0.5227470000000  0.5178030000000 1.0
C      1  0.5978110000000  0.4772540000000  0.4821950000000 1.0
C      1  0.4021890000000  0.5227450000000  0.4821960000000 1.0
C      1  0.4821950000000  0.5978100000000  0.4772510000000 1.0
C      1  0.4821960000000  0.4021900000000  0.5227490000000 1.0
C      1  0.5178040000000  0.5978120000000  0.5227430000000 1.0
C      1  0.5227450000000  0.4821930000000  0.4021900000000 1.0
C      1  0.5227470000000  0.5178070000000  0.5978100000000 1.0
C      1  0.4772550000000  0.4821980000000  0.5978110000000 1.0
C      1  0.4021890000000  0.4772530000000  0.4821970000000 1.0
C      1  0.5178050000000  0.4021900000000  0.5227490000000 1.0
C      1  0.4772550000000  0.5178070000000  0.5978100000000 1.0
C      1  0.5978100000000  0.5227460000000  0.4821940000000 1.0
C      1  0.5978110000000  0.4772550000000  0.5178040000000 1.0
C      1  0.4021890000000  0.5227460000000  0.5178050000000 1.0
C      1  0.4821950000000  0.5978110000000  0.5227430000000 1.0
C      1  0.4821960000000  0.4021880000000  0.4772570000000 1.0
C      1  0.5178040000000  0.5978100000000  0.4772510000000 1.0
C      1  0.5227470000000  0.4821990000000  0.5978110000000 1.0
C      1  0.5227450000000  0.5178020000000  0.4021890000000 1.0
C      1  0.4772530000000  0.4821930000000  0.4021900000000 1.0
C      1  0.5591750000000  0.4724590000000  0.4239160000000 1.0
C      1  0.4239150000000  0.5591740000000  0.4724600000000 1.0
C      1  0.4724620000000  0.4239180000000  0.5591780000000 1.0
C      1  0.4408240000000  0.5275370000000  0.4239160000000 1.0
C      1  0.4408250000000  0.4724630000000  0.5760850000000 1.0
C      1  0.5591760000000  0.5275420000000  0.5760830000000 1.0
C      1  0.5760840000000  0.4408240000000  0.4724620000000 1.0
C      1  0.5760840000000  0.5591770000000  0.5275370000000 1.0
C      1  0.4239160000000  0.4408250000000  0.5275420000000 1.0
C      1  0.5275390000000  0.5760860000000  0.5591730000000 1.0
C      1  0.5275390000000  0.4239140000000  0.4408270000000 1.0
C      1  0.4724600000000  0.5760820000000  0.4408230000000 1.0
C      1  0.5591760000000  0.4724630000000  0.5760840000000 1.0
C      1  0.4239160000000  0.5591760000000  0.5275380000000 1.0
C      1  0.4724610000000  0.4239140000000  0.4408270000000 1.0
C      1  0.4408250000000  0.5275410000000  0.5760840000000 1.0
C      1  0.4408240000000  0.4724580000000  0.4239170000000 1.0
C      1  0.5591750000000  0.5275370000000  0.4239150000000 1.0
C      1  0.5760850000000  0.4408260000000  0.5275400000000 1.0
C      1  0.5760840000000  0.5591750000000  0.4724580000000 1.0
C      1  0.4239160000000  0.4408230000000  0.4724630000000 1.0
C      1  0.5275380000000  0.5760820000000  0.4408220000000 1.0
C      1  0.5275400000000  0.4239180000000  0.5591770000000 1.0
C      1  0.4724610000000  0.5760860000000  0.5591730000000 1.0
C      1  0.4431500000000  0.4858780000000  0.4187570000000 1.0
C      1  0.4187560000000  0.4431490000000  0.4858830000000 1.0
C      1  0.4858810000000  0.4187540000000  0.4431530000000 1.0
C      1  0.5568490000000  0.5141170000000  0.4187550000000 1.0
C      1  0.5568510000000  0.4858840000000  0.5812440000000 1.0
C      1  0.4431510000000  0.5141210000000  0.5812440000000 1.0
C      1  0.5812430000000  0.5568500000000  0.4858790000000 1.0
C      1  0.5812440000000  0.4431510000000  0.5141200000000 1.0
C      1  0.4187560000000  0.5568500000000  0.5141180000000 1.0
C      1  0.5141180000000  0.5812420000000  0.4431480000000 1.0
C      1  0.5141200000000  0.4187580000000  0.5568520000000 1.0
C      1  0.4858810000000  0.5812450000000  0.5568480000000 1.0
C      1  0.4431510000000  0.4858830000000  0.5812450000000 1.0
C      1  0.4187570000000  0.4431500000000  0.5141210000000 1.0
C      1  0.4858820000000  0.4187580000000  0.5568520000000 1.0
C      1  0.5568500000000  0.5141220000000  0.5812430000000 1.0
C      1  0.5568490000000  0.4858790000000  0.4187560000000 1.0
C      1  0.4431490000000  0.5141160000000  0.4187560000000 1.0
C      1  0.5812440000000  0.5568510000000  0.5141170000000 1.0
C      1  0.5812440000000  0.4431500000000  0.4858820000000 1.0
C      1  0.4187560000000  0.5568490000000  0.4858800000000 1.0
C      1  0.5141190000000  0.5812460000000  0.5568470000000 1.0
C      1  0.5141190000000  0.4187550000000  0.4431520000000 1.0
C      1  0.4858800000000  0.5812420000000  0.4431480000000 1.0
C      1  0.4459590000000  0.4447580000000  0.4356730000000 1.0
C      1  0.4356710000000  0.4459570000000  0.4447620000000 1.0
C      1  0.4447600000000  0.4356690000000  0.4459620000000 1.0
C      1  0.5540400000000  0.5552390000000  0.4356690000000 1.0
C      1  0.5540410000000  0.4447620000000  0.5643300000000 1.0
C      1  0.4459600000000  0.5552420000000  0.5643280000000 1.0
C      1  0.5643280000000  0.5540390000000  0.4447580000000 1.0
C      1  0.5643290000000  0.4459610000000  0.5552410000000 1.0
C      1  0.4356710000000  0.5540420000000  0.5552390000000 1.0
C      1  0.5552390000000  0.5643270000000  0.4459570000000 1.0
C      1  0.5552410000000  0.4356730000000  0.5540420000000 1.0
C      1  0.4447600000000  0.5643300000000  0.5540390000000 1.0
C      1  0.4459600000000  0.4447610000000  0.5643310000000 1.0
C      1  0.4356720000000  0.4459610000000  0.5552420000000 1.0
C      1  0.4447610000000  0.4356730000000  0.5540430000000 1.0
C      1  0.5540410000000  0.5552420000000  0.5643270000000 1.0
C      1  0.5540400000000  0.4447580000000  0.4356720000000 1.0
C      1  0.4459590000000  0.5552380000000  0.4356700000000 1.0
C      1  0.5643290000000  0.5540420000000  0.5552380000000 1.0
C      1  0.5643290000000  0.4459580000000  0.4447610000000 1.0
C      1  0.4356710000000  0.5540390000000  0.4447590000000 1.0
C      1  0.5552400000000  0.5643310000000  0.5540380000000 1.0
C      1  0.5552400000000  0.4356700000000  0.4459610000000 1.0
C      1  0.4447590000000  0.5643270000000  0.4459580000000 1.0
C      1  0.4630750000000  0.5795910000000  0.5494020000000 1.0
C      1  0.5494050000000  0.4630780000000  0.5795900000000 1.0
C      1  0.5795890000000  0.5494040000000  0.4630730000000 1.0
C      1  0.5369260000000  0.4204120000000  0.5494070000000 1.0
C      1  0.5369240000000  0.5795880000000  0.4505930000000 1.0
C      1  0.4630750000000  0.4204090000000  0.4505980000000 1.0
C      1  0.4505960000000  0.5369270000000  0.5795890000000 1.0
C      1  0.4505950000000  0.4630720000000  0.4204120000000 1.0
C      1  0.5494040000000  0.5369230000000  0.4204090000000 1.0
C      1  0.4204110000000  0.4505940000000  0.4630770000000 1.0
C      1  0.4204110000000  0.5494050000000  0.5369240000000 1.0
C      1  0.5795900000000  0.4505970000000  0.5369260000000 1.0
C      1  0.4630740000000  0.5795880000000  0.4505930000000 1.0
C      1  0.5494040000000  0.4630730000000  0.4204110000000 1.0
C      1  0.5795890000000  0.5494060000000  0.5369230000000 1.0
C      1  0.5369250000000  0.4204090000000  0.4505980000000 1.0
C      1  0.5369250000000  0.5795910000000  0.5494020000000 1.0
C      1  0.4630760000000  0.4204120000000  0.5494070000000 1.0
C      1  0.4505950000000  0.5369220000000  0.4204100000000 1.0
C      1  0.4505960000000  0.4630770000000  0.5795910000000 1.0
C      1  0.5494050000000  0.5369280000000  0.5795880000000 1.0
C      1  0.4204110000000  0.4505960000000  0.5369270000000 1.0
C      1  0.4204100000000  0.5494030000000  0.4630740000000 1.0
C      1  0.5795890000000  0.4505950000000  0.4630760000000 1.0
C      1  0.6081820000000  0.5459440000000  0.5200110000000 1.0
C      1  0.5200130000000  0.6081840000000  0.5459390000000 1.0
C      1  0.5459430000000  0.5200170000000  0.6081820000000 1.0
C      1  0.3918180000000  0.4540570000000  0.5200150000000 1.0
C      1  0.3918170000000  0.5459410000000  0.4799870000000 1.0
C      1  0.6081830000000  0.4540570000000  0.4799880000000 1.0
C      1  0.4799880000000  0.3918190000000  0.5459460000000 1.0
C      1  0.4799860000000  0.6081810000000  0.4540540000000 1.0
C      1  0.5200130000000  0.3918160000000  0.4540600000000 1.0
C      1  0.4540580000000  0.4799900000000  0.6081840000000 1.0
C      1  0.4540560000000  0.5200100000000  0.3918170000000 1.0
C      1  0.5459420000000  0.4799840000000  0.3918180000000 1.0
C      1  0.6081820000000  0.5459430000000  0.4799850000000 1.0
C      1  0.5200120000000  0.6081810000000  0.4540540000000 1.0
C      1  0.5459420000000  0.5200100000000  0.3918170000000 1.0
C      1  0.3918180000000  0.4540560000000  0.4799890000000 1.0
C      1  0.3918170000000  0.5459430000000  0.5200120000000 1.0
C      1  0.6081830000000  0.4540590000000  0.5200130000000 1.0
C      1  0.4799870000000  0.3918160000000  0.4540610000000 1.0
C      1  0.4799870000000  0.6081840000000  0.5459400000000 1.0
C      1  0.5200140000000  0.3918190000000  0.5459460000000 1.0
C      1  0.4540570000000  0.4799840000000  0.3918180000000 1.0
C      1  0.4540580000000  0.5200160000000  0.6081820000000 1.0
C      1  0.5459440000000  0.4799900000000  0.6081830000000 1.0
C      1  0.5132770000000  0.5530730000000  0.4072970000000 1.0
C      1  0.4072990000000  0.5132790000000  0.5530770000000 1.0
C      1  0.5530770000000  0.4073000000000  0.5132810000000 1.0
C      1  0.4867210000000  0.4469210000000  0.4073010000000 1.0
C      1  0.4867220000000  0.5530790000000  0.5926990000000 1.0
C      1  0.5132790000000  0.4469270000000  0.5927020000000 1.0
C      1  0.5927010000000  0.4867240000000  0.5530760000000 1.0
C      1  0.5927000000000  0.5132770000000  0.4469230000000 1.0
C      1  0.4072990000000  0.4867200000000  0.4469250000000 1.0
C      1  0.4469230000000  0.5927010000000  0.5132760000000 1.0
C      1  0.4469240000000  0.4072990000000  0.4867250000000 1.0
C      1  0.5530760000000  0.5927010000000  0.4867180000000 1.0
C      1  0.5132790000000  0.5530790000000  0.5926990000000 1.0
C      1  0.4072990000000  0.5132760000000  0.4469240000000 1.0
C      1  0.5530770000000  0.4072990000000  0.4867240000000 1.0
C      1  0.4867230000000  0.4469270000000  0.5927030000000 1.0
C      1  0.4867210000000  0.5530730000000  0.4072980000000 1.0
C      1  0.5132780000000  0.4469210000000  0.4073010000000 1.0
C      1  0.5927000000000  0.4867210000000  0.4469240000000 1.0
C      1  0.5927010000000  0.5132800000000  0.5530750000000 1.0
C      1  0.4073000000000  0.4867230000000  0.5530770000000 1.0
C      1  0.4469230000000  0.5927000000000  0.4867190000000 1.0
C      1  0.4469240000000  0.4072990000000  0.5132820000000 1.0
C      1  0.5530760000000  0.5927020000000  0.5132750000000 1.0
C      1  0.6002330000000  0.4861730000000  0.5074740000000 1.0
C      1  0.5074740000000  0.6002320000000  0.4861690000000 1.0
C      1  0.4861730000000  0.5074780000000  0.6002330000000 1.0
C      1  0.3997670000000  0.5138280000000  0.5074750000000 1.0
C      1  0.3997670000000  0.4861710000000  0.4925270000000 1.0
C      1  0.6002330000000  0.5138280000000  0.4925240000000 1.0
C      1  0.4925260000000  0.3997670000000  0.4861750000000 1.0
C      1  0.4925250000000  0.6002330000000  0.5138250000000 1.0
C      1  0.5074750000000  0.3997680000000  0.5138310000000 1.0
C      1  0.5138290000000  0.4925280000000  0.6002330000000 1.0
C      1  0.5138270000000  0.5074720000000  0.3997670000000 1.0
C      1  0.4861710000000  0.4925220000000  0.3997680000000 1.0
C      1  0.6002330000000  0.4861720000000  0.4925250000000 1.0
C      1  0.5074740000000  0.6002330000000  0.5138250000000 1.0
C      1  0.4861710000000  0.5074720000000  0.3997670000000 1.0
C      1  0.3997670000000  0.5138270000000  0.4925260000000 1.0
C      1  0.3997670000000  0.4861720000000  0.5074760000000 1.0
C      1  0.6002330000000  0.5138290000000  0.5074730000000 1.0
C      1  0.4925260000000  0.3997680000000  0.5138310000000 1.0
C      1  0.4925250000000  0.6002320000000  0.4861690000000 1.0
C      1  0.5074750000000  0.3997670000000  0.4861750000000 1.0
C      1  0.5138270000000  0.4925220000000  0.3997670000000 1.0
C      1  0.5138290000000  0.5074780000000  0.6002320000000 1.0
C      1  0.4861730000000  0.4925280000000  0.6002330000000 1.0
C      1  0.5499040000000  0.5746000000000  0.4538440000000 1.0
C      1  0.4538470000000  0.5499060000000  0.5746000000000 1.0
C      1  0.5746020000000  0.4538490000000  0.5499050000000 1.0
C      1  0.4500960000000  0.4253970000000  0.4538500000000 1.0
C      1  0.4500960000000  0.5746020000000  0.5461510000000 1.0
C      1  0.5499050000000  0.4254010000000  0.5461550000000 1.0
C      1  0.5461540000000  0.4500980000000  0.5746020000000 1.0
C      1  0.5461520000000  0.5499020000000  0.4253970000000 1.0
C      1  0.4538470000000  0.4500930000000  0.4254010000000 1.0
C      1  0.4253990000000  0.5461540000000  0.5499040000000 1.0
C      1  0.4253990000000  0.4538450000000  0.4500980000000 1.0
C      1  0.5746000000000  0.5461520000000  0.4500940000000 1.0
C      1  0.5499040000000  0.5746030000000  0.5461500000000 1.0
C      1  0.4538460000000  0.5499020000000  0.4253980000000 1.0
C      1  0.5746010000000  0.4538460000000  0.4500960000000 1.0
C      1  0.4500960000000  0.4254000000000  0.5461560000000 1.0
C      1  0.4500950000000  0.5745990000000  0.4538450000000 1.0
C      1  0.5499040000000  0.4253980000000  0.4538490000000 1.0
C      1  0.5461530000000  0.4500940000000  0.4254000000000 1.0
C      1  0.5461530000000  0.5499070000000  0.5745990000000 1.0
C      1  0.4538480000000  0.4500980000000  0.5746030000000 1.0
C      1  0.4253980000000  0.5461510000000  0.4500950000000 1.0
C      1  0.4254000000000  0.4538480000000  0.5499060000000 1.0
C      1  0.5746010000000  0.5461550000000  0.5499020000000 1.0
C      1  0.5785240000000  0.4657750000000  0.4426220000000 1.0
C      1  0.4426210000000  0.5785230000000  0.4657750000000 1.0
C      1  0.4657770000000  0.4426240000000  0.5785260000000 1.0
C      1  0.4214750000000  0.5342210000000  0.4426210000000 1.0
C      1  0.4214760000000  0.4657780000000  0.5573800000000 1.0
C      1  0.5785250000000  0.5342260000000  0.5573770000000 1.0
C      1  0.5573790000000  0.4214750000000  0.4657780000000 1.0
C      1  0.5573780000000  0.5785260000000  0.5342210000000 1.0
C      1  0.4426220000000  0.4214760000000  0.5342260000000 1.0
C      1  0.5342240000000  0.5573810000000  0.5785220000000 1.0
C      1  0.5342230000000  0.4426190000000  0.4214770000000 1.0
C      1  0.4657760000000  0.5573760000000  0.4214740000000 1.0
C      1  0.5785250000000  0.4657790000000  0.5573790000000 1.0
C      1  0.4426210000000  0.5785250000000  0.5342220000000 1.0
C      1  0.4657760000000  0.4426190000000  0.4214770000000 1.0
C      1  0.4214760000000  0.5342250000000  0.5573780000000 1.0
C      1  0.4214750000000  0.4657740000000  0.4426230000000 1.0
C      1  0.5785240000000  0.5342220000000  0.4426200000000 1.0
C      1  0.5573790000000  0.4214770000000  0.5342250000000 1.0
C      1  0.5573780000000  0.5785240000000  0.4657740000000 1.0
C      1  0.4426220000000  0.4214740000000  0.4657790000000 1.0
C      1  0.5342230000000  0.5573760000000  0.4214740000000 1.0
C      1  0.5342240000000  0.4426240000000  0.5785260000000 1.0
C      1  0.4657770000000  0.5573810000000  0.5785230000000 1.0
C      1  0.4211420000000  0.4315350000000  0.5068750000000 1.0
C      1  0.5068720000000  0.4211390000000  0.4315380000000 1.0
C      1  0.4315350000000  0.5068690000000  0.4211420000000 1.0
C      1  0.5788580000000  0.5684650000000  0.5068690000000 1.0
C      1  0.5788590000000  0.4315360000000  0.4931290000000 1.0
C      1  0.4211410000000  0.5684640000000  0.4931260000000 1.0
C      1  0.4931270000000  0.5788570000000  0.4315330000000 1.0
C      1  0.4931290000000  0.4211430000000  0.5684670000000 1.0
C      1  0.5068720000000  0.5788610000000  0.5684620000000 1.0
C      1  0.5684640000000  0.4931260000000  0.4211410000000 1.0
C      1  0.5684650000000  0.5068750000000  0.5788580000000 1.0
C      1  0.4315360000000  0.4931300000000  0.5788600000000 1.0
C      1  0.4211410000000  0.4315350000000  0.4931310000000 1.0
C      1  0.5068730000000  0.4211430000000  0.5684670000000 1.0
C      1  0.4315360000000  0.5068740000000  0.5788590000000 1.0
C      1  0.5788580000000  0.5684650000000  0.4931250000000 1.0
C      1  0.5788590000000  0.4315360000000  0.5068740000000 1.0
C      1  0.4211410000000  0.5684640000000  0.5068710000000 1.0
C      1  0.4931280000000  0.5788610000000  0.5684620000000 1.0
C      1  0.4931280000000  0.4211390000000  0.4315380000000 1.0
C      1  0.5068710000000  0.5788570000000  0.4315330000000 1.0
C      1  0.5684650000000  0.4931310000000  0.5788580000000 1.0
C      1  0.5684640000000  0.5068700000000  0.4211400000000 1.0
C      1  0.4315350000000  0.4931250000000  0.4211420000000 1.0
C      1  0.5313710000000  0.5906960000000  0.4585380000000 1.0
C      1  0.4585410000000  0.5313750000000  0.5906960000000 1.0
C      1  0.5906970000000  0.4585420000000  0.5313730000000 1.0
C      1  0.4686280000000  0.4093020000000  0.4585440000000 1.0
C      1  0.4686280000000  0.5906980000000  0.5414570000000 1.0
C      1  0.5313730000000  0.4093050000000  0.5414620000000 1.0
C      1  0.5414600000000  0.4686310000000  0.5906970000000 1.0
C      1  0.5414580000000  0.5313700000000  0.4093020000000 1.0
C      1  0.4585400000000  0.4686250000000  0.4093040000000 1.0
C      1  0.4093030000000  0.5414600000000  0.5313720000000 1.0
C      1  0.4093030000000  0.4585390000000  0.4686300000000 1.0
C      1  0.5906960000000  0.5414590000000  0.4686260000000 1.0
C      1  0.5313720000000  0.5906980000000  0.5414560000000 1.0
C      1  0.4585400000000  0.5313690000000  0.4093030000000 1.0
C      1  0.5906970000000  0.4585400000000  0.4686280000000 1.0
C      1  0.4686290000000  0.4093040000000  0.5414620000000 1.0
C      1  0.4686270000000  0.5906950000000  0.4585380000000 1.0
C      1  0.5313720000000  0.4093020000000  0.4585430000000 1.0
C      1  0.5414590000000  0.4686250000000  0.4093040000000 1.0
C      1  0.5414600000000  0.5313750000000  0.5906950000000 1.0
C      1  0.4585420000000  0.4686300000000  0.5906980000000 1.0
C      1  0.4093030000000  0.5414580000000  0.4686270000000 1.0
C      1  0.4093040000000  0.4585410000000  0.5313740000000 1.0
C      1  0.5906970000000  0.5414610000000  0.5313700000000 1.0
C      1  0.5720760000000  0.5272910000000  0.4316070000000 1.0
C      1  0.4316080000000  0.5720770000000  0.5272910000000 1.0
C      1  0.5272940000000  0.4316110000000  0.5720780000000 1.0
C      1  0.4279230000000  0.4727050000000  0.4316100000000 1.0
C      1  0.4279240000000  0.5272950000000  0.5683910000000 1.0
C      1  0.5720770000000  0.4727090000000  0.5683920000000 1.0
C      1  0.5683920000000  0.4279250000000  0.5272950000000 1.0
C      1  0.5683910000000  0.5720760000000  0.4727040000000 1.0
C      1  0.4316090000000  0.4279220000000  0.4727100000000 1.0
C      1  0.4727070000000  0.5683940000000  0.5720750000000 1.0
C      1  0.4727070000000  0.4316060000000  0.4279260000000 1.0
C      1  0.5272920000000  0.5683900000000  0.4279210000000 1.0
C      1  0.5720770000000  0.5272950000000  0.5683900000000 1.0
C      1  0.4316080000000  0.5720750000000  0.4727050000000 1.0
C      1  0.5272930000000  0.4316060000000  0.4279250000000 1.0
C      1  0.4279240000000  0.4727090000000  0.5683930000000 1.0
C      1  0.4279230000000  0.5272910000000  0.4316080000000 1.0
C      1  0.5720760000000  0.4727050000000  0.4316090000000 1.0
C      1  0.5683920000000  0.4279230000000  0.4727090000000 1.0
C      1  0.5683910000000  0.5720780000000  0.5272900000000 1.0
C      1  0.4316090000000  0.4279240000000  0.5272960000000 1.0
C      1  0.4727060000000  0.5683890000000  0.4279220000000 1.0
C      1  0.4727080000000  0.4316100000000  0.5720790000000 1.0
C      1  0.5272930000000  0.5683940000000  0.5720740000000 1.0
C      1  0.5299110000000  0.4611020000000  0.4060200000000 1.0
C      1  0.4060190000000  0.5299100000000  0.4611050000000 1.0
C      1  0.4611050000000  0.4060200000000  0.5299150000000 1.0
C      1  0.4700870000000  0.5388920000000  0.4060180000000 1.0
C      1  0.4700890000000  0.4611070000000  0.5939820000000 1.0
C      1  0.5299120000000  0.5388980000000  0.5939790000000 1.0
C      1  0.5939800000000  0.4700880000000  0.4611050000000 1.0
C      1  0.5939810000000  0.5299130000000  0.5388940000000 1.0
C      1  0.4060200000000  0.4700890000000  0.5388970000000 1.0
C      1  0.5388950000000  0.5939820000000  0.5299090000000 1.0
C      1  0.5388960000000  0.4060190000000  0.4700910000000 1.0
C      1  0.4611040000000  0.5939790000000  0.4700860000000 1.0
C      1  0.5299130000000  0.4611080000000  0.5939810000000 1.0
C      1  0.4060200000000  0.5299120000000  0.5388950000000 1.0
C      1  0.4611050000000  0.4060180000000  0.4700910000000 1.0
C      1  0.4700890000000  0.5388980000000  0.5939800000000 1.0
C      1  0.4700880000000  0.4611020000000  0.4060210000000 1.0
C      1  0.5299110000000  0.5388930000000  0.4060180000000 1.0
C      1  0.5939810000000  0.4700900000000  0.5388950000000 1.0
C      1  0.5939800000000  0.5299110000000  0.4611030000000 1.0
C      1  0.4060190000000  0.4700870000000  0.4611060000000 1.0
C      1  0.5388950000000  0.5939800000000  0.4700850000000 1.0
C      1  0.5388960000000  0.4060210000000  0.5299140000000 1.0
C      1  0.4611040000000  0.5939810000000  0.5299090000000 1.0
C      1  0.5071150000000  0.4594490000000  0.5974480000000 1.0
C      1  0.5974470000000  0.5071130000000  0.4594450000000 1.0
C      1  0.4594460000000  0.5974470000000  0.5071110000000 1.0
C      1  0.4928870000000  0.5405570000000  0.5974460000000 1.0
C      1  0.4928860000000  0.4594430000000  0.4025540000000 1.0
C      1  0.5071130000000  0.5405510000000  0.4025520000000 1.0
C      1  0.4025530000000  0.4928850000000  0.4594470000000 1.0
C      1  0.4025530000000  0.5071140000000  0.5405550000000 1.0
C      1  0.5974470000000  0.4928880000000  0.5405530000000 1.0
C      1  0.5405540000000  0.4025530000000  0.5071160000000 1.0
C      1  0.5405530000000  0.5974470000000  0.4928830000000 1.0
C      1  0.4594470000000  0.4025530000000  0.4928900000000 1.0
C      1  0.5071130000000  0.4594430000000  0.4025540000000 1.0
C      1  0.5974470000000  0.5071150000000  0.5405530000000 1.0
C      1  0.4594450000000  0.5974470000000  0.4928840000000 1.0
C      1  0.4928850000000  0.5405510000000  0.4025520000000 1.0
C      1  0.4928870000000  0.4594490000000  0.5974480000000 1.0
C      1  0.5071140000000  0.5405570000000  0.5974460000000 1.0
C      1  0.4025530000000  0.4928870000000  0.5405550000000 1.0
C      1  0.4025530000000  0.5071120000000  0.4594470000000 1.0
C      1  0.5974470000000  0.4928860000000  0.4594450000000 1.0
C      1  0.5405540000000  0.4025530000000  0.4928890000000 1.0
C      1  0.5405530000000  0.5974470000000  0.5071100000000 1.0
C      1  0.4594470000000  0.4025530000000  0.5071170000000 1.0
C      1  0.5714330000000  0.4222820000000  0.4855610000000 1.0
C      1  0.4855590000000  0.5714300000000  0.4222800000000 1.0
C      1  0.4222830000000  0.4855610000000  0.5714330000000 1.0
C      1  0.4285670000000  0.5777170000000  0.4855580000000 1.0
C      1  0.4285680000000  0.4222820000000  0.5144430000000 1.0
C      1  0.5714320000000  0.5777190000000  0.5144370000000 1.0
C      1  0.5144400000000  0.4285650000000  0.4222840000000 1.0
C      1  0.5144410000000  0.5714350000000  0.5777160000000 1.0
C      1  0.4855610000000  0.4285700000000  0.5777200000000 1.0
C      1  0.5777190000000  0.5144430000000  0.5714310000000 1.0
C      1  0.5777180000000  0.4855580000000  0.4285680000000 1.0
C      1  0.4222810000000  0.5144380000000  0.4285680000000 1.0
C      1  0.5714330000000  0.4222830000000  0.5144420000000 1.0
C      1  0.4855600000000  0.5714350000000  0.5777160000000 1.0
C      1  0.4222820000000  0.4855570000000  0.4285690000000 1.0
C      1  0.4285670000000  0.5777180000000  0.5144390000000 1.0
C      1  0.4285680000000  0.4222810000000  0.4855630000000 1.0
C      1  0.5714320000000  0.5777180000000  0.4855570000000 1.0
C      1  0.5144410000000  0.4285700000000  0.5777200000000 1.0
C      1  0.5144390000000  0.5714300000000  0.4222800000000 1.0
C      1  0.4855590000000  0.4285650000000  0.4222840000000 1.0
C      1  0.5777170000000  0.5144390000000  0.4285670000000 1.0
C      1  0.5777190000000  0.4855620000000  0.5714320000000 1.0
C      1  0.4222820000000  0.5144420000000  0.5714330000000 1.0
C      1  0.4923910000000  0.3971130000000  0.5000030000000 1.0
C      1  0.3971130000000  0.4999990000000  0.4923920000000 1.0
C      1  0.5076090000000  0.6028870000000  0.4999970000000 1.0
C      1  0.5076100000000  0.3971140000000  0.5000030000000 1.0
C      1  0.4923900000000  0.6028870000000  0.4999970000000 1.0
C      1  0.6028860000000  0.5000000000000  0.4923900000000 1.0
C      1  0.6028870000000  0.5000010000000  0.5076080000000 1.0
C      1  0.3971140000000  0.5000000000000  0.5076100000000 1.0
C      1  0.4999990000000  0.4923880000000  0.3971140000000 1.0
C      1  0.4999990000000  0.5076060000000  0.3971130000000 1.0
C      1  0.5000010000000  0.4923940000000  0.6028870000000 1.0
C      1  0.5000010000000  0.5076120000000  0.6028860000000 1.0
END
