TITL C-66628-1407-4 0.0652815372304658 1000000 -3908.10550744424 0 0 540 (C1) n - 1
REM
REM in /home/chem/mssmkc/work/GAP20/Larger-Clusters/Only-C240/New/BUILD-ONLY/Try2-C540
REM
REM
REM
REM
REM
REM ./C.cell (4d22446d3c8a03e2533cb19ef5564aa4)
REM
REM compiler GCC version 8.3.0
REM options -cpp -mtune=generic -march=x86-64 -g -O0
REM seed -1612981244 -1303952356 -1608523388 -1180958657 1504852579 -179811092 2047162697 296522553 -1570751613 160272144 1906193434 -700988296 1571764231 766709054 149719060 -644638137 -303151722 -828441815 -1165867349 -1424695398 509951425 429011877 -411971654 -1063252972 2132270656 742423838 -165181000 -1993888724 406759695 1194677498 1350900776 -464470311 -1074542906
REM
CELL 1.54180  100.00000  100.00000  100.00000   90.00000   90.00000   90.00000
LATT -1
SFAC C  
C      1  0.5442250000000  0.4667000000000  0.5551850000000 1.0
C      1  0.4659700000000  0.5557020000000  0.5436800000000 1.0
C      1  0.5533100000000  0.5439230000000  0.4658130000000 1.0
C      1  0.5436560000000  0.5338560000000  0.4444710000000 1.0
C      1  0.4550030000000  0.4654290000000  0.4448580000000 1.0
C      1  0.4562700000000  0.5345500000000  0.5545300000000 1.0
C      1  0.4652990000000  0.4446250000000  0.4559000000000 1.0
C      1  0.5333670000000  0.5549700000000  0.4544320000000 1.0
C      1  0.5330520000000  0.4462780000000  0.5449330000000 1.0
C      1  0.5536190000000  0.4565000000000  0.5339250000000 1.0
C      1  0.4449110000000  0.5448180000000  0.5338970000000 1.0
C      1  0.4440240000000  0.4551250000000  0.4656680000000 1.0
C      1  0.5431650000000  0.5546180000000  0.4654530000000 1.0
C      1  0.4664810000000  0.5452880000000  0.5541320000000 1.0
C      1  0.5542100000000  0.4666650000000  0.5444500000000 1.0
C      1  0.5430590000000  0.4462240000000  0.5340940000000 1.0
C      1  0.4544620000000  0.4447350000000  0.4660380000000 1.0
C      1  0.4551090000000  0.5554410000000  0.5336190000000 1.0
C      1  0.4655080000000  0.4549740000000  0.4453600000000 1.0
C      1  0.5335370000000  0.4565770000000  0.5554760000000 1.0
C      1  0.5335950000000  0.5446120000000  0.4440290000000 1.0
C      1  0.5535720000000  0.5335990000000  0.4553600000000 1.0
C      1  0.4455540000000  0.5343940000000  0.5443740000000 1.0
C      1  0.4443430000000  0.4654390000000  0.4550410000000 1.0
C      1  0.5551300000000  0.5793980000000  0.4946480000000 1.0
C      1  0.5805570000000  0.4945140000000  0.5551500000000 1.0
C      1  0.4941890000000  0.5577870000000  0.5798760000000 1.0
C      1  0.5548600000000  0.4212100000000  0.5049200000000 1.0
C      1  0.4420600000000  0.5815820000000  0.5065910000000 1.0
C      1  0.4419740000000  0.4184980000000  0.4933930000000 1.0
C      1  0.5803400000000  0.5055120000000  0.4453660000000 1.0
C      1  0.4189210000000  0.4931870000000  0.4422850000000 1.0
C      1  0.4207580000000  0.5061700000000  0.5571510000000 1.0
C      1  0.4940090000000  0.4426860000000  0.4204210000000 1.0
C      1  0.5061740000000  0.5575600000000  0.4185820000000 1.0
C      1  0.5051200000000  0.4443750000000  0.5811270000000 1.0
C      1  0.5577200000000  0.4938620000000  0.5803660000000 1.0
C      1  0.5791870000000  0.5543760000000  0.4944480000000 1.0
C      1  0.4949670000000  0.5812920000000  0.5553760000000 1.0
C      1  0.5572290000000  0.5054260000000  0.4199600000000 1.0
C      1  0.4450800000000  0.5055840000000  0.5808290000000 1.0
C      1  0.4425610000000  0.4936590000000  0.4184350000000 1.0
C      1  0.5793320000000  0.4457990000000  0.5055300000000 1.0
C      1  0.4183540000000  0.4424280000000  0.4941330000000 1.0
C      1  0.4187300000000  0.5572900000000  0.5057930000000 1.0
C      1  0.4945790000000  0.4188990000000  0.4444790000000 1.0
C      1  0.5059090000000  0.4200920000000  0.5574440000000 1.0
C      1  0.5065370000000  0.5814410000000  0.4417190000000 1.0
C      1  0.5326700000000  0.4120440000000  0.4931000000000 1.0
C      1  0.4116800000000  0.5031050000000  0.5353440000000 1.0
C      1  0.5027780000000  0.5353030000000  0.4104910000000 1.0
C      1  0.5328850000000  0.5885290000000  0.5064420000000 1.0
C      1  0.4638630000000  0.4097010000000  0.4954140000000 1.0
C      1  0.4638750000000  0.5906020000000  0.5045640000000 1.0
C      1  0.4106620000000  0.4963810000000  0.4643910000000 1.0
C      1  0.5883200000000  0.4944030000000  0.4691060000000 1.0
C      1  0.5882180000000  0.5059400000000  0.5313920000000 1.0
C      1  0.4934540000000  0.4670820000000  0.5894470000000 1.0
C      1  0.4960190000000  0.5361920000000  0.5893440000000 1.0
C      1  0.4969410000000  0.4645460000000  0.4115320000000 1.0
C      1  0.5348580000000  0.4949890000000  0.4103570000000 1.0
C      1  0.4102650000000  0.5345930000000  0.4947920000000 1.0
C      1  0.5041160000000  0.4107510000000  0.5357830000000 1.0
C      1  0.5361960000000  0.4958240000000  0.5901520000000 1.0
C      1  0.4650880000000  0.5047990000000  0.4098140000000 1.0
C      1  0.4675350000000  0.4934370000000  0.5891930000000 1.0
C      1  0.4100810000000  0.4651590000000  0.5051960000000 1.0
C      1  0.5881090000000  0.4692710000000  0.4945910000000 1.0
C      1  0.5878150000000  0.5310510000000  0.5057850000000 1.0
C      1  0.5043620000000  0.5900810000000  0.4637100000000 1.0
C      1  0.5069170000000  0.5892490000000  0.5326760000000 1.0
C      1  0.5066730000000  0.4110560000000  0.4670780000000 1.0
C      1  0.5437780000000  0.4332070000000  0.5266520000000 1.0
C      1  0.4328280000000  0.5269300000000  0.5457970000000 1.0
C      1  0.5268930000000  0.5460070000000  0.4307580000000 1.0
C      1  0.5441840000000  0.5675740000000  0.4728830000000 1.0
C      1  0.4531840000000  0.4318830000000  0.4733290000000 1.0
C      1  0.4535160000000  0.5683360000000  0.5265110000000 1.0
C      1  0.4314220000000  0.4726220000000  0.4535580000000 1.0
C      1  0.5668620000000  0.5267770000000  0.4544810000000 1.0
C      1  0.5677080000000  0.4730520000000  0.5455610000000 1.0
C      1  0.5265930000000  0.4554920000000  0.5687770000000 1.0
C      1  0.4739740000000  0.5465360000000  0.5668300000000 1.0
C      1  0.4731010000000  0.4538050000000  0.4326490000000 1.0
C      1  0.5451580000000  0.5265300000000  0.4314950000000 1.0
C      1  0.4315400000000  0.5457220000000  0.5268400000000 1.0
C      1  0.5258490000000  0.4334310000000  0.5461500000000 1.0
C      1  0.5459990000000  0.4736320000000  0.5680850000000 1.0
C      1  0.4541460000000  0.4727520000000  0.4316010000000 1.0
C      1  0.4556970000000  0.5271440000000  0.5677030000000 1.0
C      1  0.4307250000000  0.4540100000000  0.4728420000000 1.0
C      1  0.5666680000000  0.4550810000000  0.5269540000000 1.0
C      1  0.5663870000000  0.5449930000000  0.4729440000000 1.0
C      1  0.5265410000000  0.5680900000000  0.4530420000000 1.0
C      1  0.4731780000000  0.5689480000000  0.5445280000000 1.0
C      1  0.4728170000000  0.4315280000000  0.4551690000000 1.0
C      1  0.5941720000000  0.5196180000000  0.5295170000000 1.0
C      1  0.5207910000000  0.5296140000000  0.6005840000000 1.0
C      1  0.5309210000000  0.5939850000000  0.5202810000000 1.0
C      1  0.5946340000000  0.4808930000000  0.4710190000000 1.0
C      1  0.4040930000000  0.5220250000000  0.4716430000000 1.0
C      1  0.4045520000000  0.4777850000000  0.5284750000000 1.0
C      1  0.5224640000000  0.4716980000000  0.4044550000000 1.0
C      1  0.4773290000000  0.5281500000000  0.4039130000000 1.0
C      1  0.4795240000000  0.4693740000000  0.5946200000000 1.0
C      1  0.5307200000000  0.4064880000000  0.4793230000000 1.0
C      1  0.4706780000000  0.6012710000000  0.4795480000000 1.0
C      1  0.4708390000000  0.3989950000000  0.5202550000000 1.0
C      1  0.5941180000000  0.5294980000000  0.5193500000000 1.0
C      1  0.5209120000000  0.5942530000000  0.5303830000000 1.0
C      1  0.5297390000000  0.5207530000000  0.6005830000000 1.0
C      1  0.5945420000000  0.4709340000000  0.4811080000000 1.0
C      1  0.4050270000000  0.4677710000000  0.5190760000000 1.0
C      1  0.4048760000000  0.5320320000000  0.4810280000000 1.0
C      1  0.5206580000000  0.4060490000000  0.4693070000000 1.0
C      1  0.4797230000000  0.3992210000000  0.5291820000000 1.0
C      1  0.4795040000000  0.6010550000000  0.4705760000000 1.0
C      1  0.5324340000000  0.4811090000000  0.4051500000000 1.0
C      1  0.4695800000000  0.4795650000000  0.5946240000000 1.0
C      1  0.4674800000000  0.5185890000000  0.4044170000000 1.0
C      1  0.3982960000000  0.4384390000000  0.5420340000000 1.0
C      1  0.4378280000000  0.5409400000000  0.3973520000000 1.0
C      1  0.5417140000000  0.3974640000000  0.4386380000000 1.0
C      1  0.3978510000000  0.5614460000000  0.4582850000000 1.0
C      1  0.6048480000000  0.4403710000000  0.4608770000000 1.0
C      1  0.6043250000000  0.5602840000000  0.5393290000000 1.0
C      1  0.4385170000000  0.4590830000000  0.6033550000000 1.0
C      1  0.5606130000000  0.5409050000000  0.6022760000000 1.0
C      1  0.5620430000000  0.4582690000000  0.3989610000000 1.0
C      1  0.5422050000000  0.6025320000000  0.5610100000000 1.0
C      1  0.4596970000000  0.3964040000000  0.5600270000000 1.0
C      1  0.4592170000000  0.6030970000000  0.4398510000000 1.0
C      1  0.3967350000000  0.5402900000000  0.4396160000000 1.0
C      1  0.4400770000000  0.3958340000000  0.5403060000000 1.0
C      1  0.5408300000000  0.4395740000000  0.3977190000000 1.0
C      1  0.3977330000000  0.4596320000000  0.5607220000000 1.0
C      1  0.6051020000000  0.4601430000000  0.4408760000000 1.0
C      1  0.6033380000000  0.5409080000000  0.5597650000000 1.0
C      1  0.4397890000000  0.6040110000000  0.4596440000000 1.0
C      1  0.5621480000000  0.6022190000000  0.5407680000000 1.0
C      1  0.5619120000000  0.3985240000000  0.4586600000000 1.0
C      1  0.5407940000000  0.5604930000000  0.6028950000000 1.0
C      1  0.4583470000000  0.5601140000000  0.3980760000000 1.0
C      1  0.4581130000000  0.4386900000000  0.6025880000000 1.0
C      1  0.4256620000000  0.4357160000000  0.4459000000000 1.0
C      1  0.4364290000000  0.4455730000000  0.4257410000000 1.0
C      1  0.4463320000000  0.4253910000000  0.4364800000000 1.0
C      1  0.4262110000000  0.5636290000000  0.5540050000000 1.0
C      1  0.5732590000000  0.4362180000000  0.5530520000000 1.0
C      1  0.5737060000000  0.5634700000000  0.4467650000000 1.0
C      1  0.4372860000000  0.5537990000000  0.5740250000000 1.0
C      1  0.5637800000000  0.4465750000000  0.5736830000000 1.0
C      1  0.5639670000000  0.5532940000000  0.4261730000000 1.0
C      1  0.4466540000000  0.5743500000000  0.5634130000000 1.0
C      1  0.5528810000000  0.4266780000000  0.5636050000000 1.0
C      1  0.5538700000000  0.5738150000000  0.4360320000000 1.0
C      1  0.4259570000000  0.4457180000000  0.4356210000000 1.0
C      1  0.4358350000000  0.4255210000000  0.4462800000000 1.0
C      1  0.4465970000000  0.4354350000000  0.4261880000000 1.0
C      1  0.4268030000000  0.5535220000000  0.5641760000000 1.0
C      1  0.5739430000000  0.5532950000000  0.4364850000000 1.0
C      1  0.5738410000000  0.4462730000000  0.5634040000000 1.0
C      1  0.4361340000000  0.5740700000000  0.5536630000000 1.0
C      1  0.5635450000000  0.5735760000000  0.4466100000000 1.0
C      1  0.5626800000000  0.4265470000000  0.5531140000000 1.0
C      1  0.4471570000000  0.5642270000000  0.5736360000000 1.0
C      1  0.5540480000000  0.5636190000000  0.4258010000000 1.0
C      1  0.5533440000000  0.4367650000000  0.5738880000000 1.0
C      1  0.3950890000000  0.4368160000000  0.5555990000000 1.0
C      1  0.4357460000000  0.5545150000000  0.3945510000000 1.0
C      1  0.5552540000000  0.3946720000000  0.4363730000000 1.0
C      1  0.3943880000000  0.5631260000000  0.4447910000000 1.0
C      1  0.6086950000000  0.4379930000000  0.4476360000000 1.0
C      1  0.6077600000000  0.5628550000000  0.5526460000000 1.0
C      1  0.4359540000000  0.4456430000000  0.6063150000000 1.0
C      1  0.5631530000000  0.5542730000000  0.6055440000000 1.0
C      1  0.5636810000000  0.4447540000000  0.3955370000000 1.0
C      1  0.5557340000000  0.6054620000000  0.5631730000000 1.0
C      1  0.4464210000000  0.3928030000000  0.5625740000000 1.0
C      1  0.4459140000000  0.6065630000000  0.4372860000000 1.0
C      1  0.3932730000000  0.5535340000000  0.4367450000000 1.0
C      1  0.4375830000000  0.3925100000000  0.5536590000000 1.0
C      1  0.5541030000000  0.4367010000000  0.3943440000000 1.0
C      1  0.3942200000000  0.4464120000000  0.5636730000000 1.0
C      1  0.6087970000000  0.4468260000000  0.4387030000000 1.0
C      1  0.6070230000000  0.5542640000000  0.5617890000000 1.0
C      1  0.4371620000000  0.6071560000000  0.4462760000000 1.0
C      1  0.5645430000000  0.6053810000000  0.5542110000000 1.0
C      1  0.5641600000000  0.3952060000000  0.4452210000000 1.0
C      1  0.5541970000000  0.5630680000000  0.6059890000000 1.0
C      1  0.4450860000000  0.5629270000000  0.3946310000000 1.0
C      1  0.4446420000000  0.4365760000000  0.6058030000000 1.0
C      1  0.4626500000000  0.4199280000000  0.4544900000000 1.0
C      1  0.4194660000000  0.4534150000000  0.4623700000000 1.0
C      1  0.4540350000000  0.4623680000000  0.4202160000000 1.0
C      1  0.4627860000000  0.5803160000000  0.5453840000000 1.0
C      1  0.5353840000000  0.4214810000000  0.5464890000000 1.0
C      1  0.5364110000000  0.5797290000000  0.4530230000000 1.0
C      1  0.4203300000000  0.5459620000000  0.5373860000000 1.0
C      1  0.5782400000000  0.4535450000000  0.5366480000000 1.0
C      1  0.5779960000000  0.5460760000000  0.4632650000000 1.0
C      1  0.4552870000000  0.5374000000000  0.5792460000000 1.0
C      1  0.5467630000000  0.4639330000000  0.5798350000000 1.0
C      1  0.5463760000000  0.5366030000000  0.4199100000000 1.0
C      1  0.4636380000000  0.4529290000000  0.4206320000000 1.0
C      1  0.4196950000000  0.4628620000000  0.4527920000000 1.0
C      1  0.4528810000000  0.4199610000000  0.4637420000000 1.0
C      1  0.4646030000000  0.5471020000000  0.5789370000000 1.0
C      1  0.5370600000000  0.5462930000000  0.4194350000000 1.0
C      1  0.5370740000000  0.4546300000000  0.5800600000000 1.0
C      1  0.4208660000000  0.5364140000000  0.5468590000000 1.0
C      1  0.5782280000000  0.5367610000000  0.4538210000000 1.0
C      1  0.5787370000000  0.4627230000000  0.5461830000000 1.0
C      1  0.4529860000000  0.5801570000000  0.5361810000000 1.0
C      1  0.5455200000000  0.5792750000000  0.4628820000000 1.0
C      1  0.5446120000000  0.4215310000000  0.5366960000000 1.0
C      1  0.5185470000000  0.5744470000000  0.4427660000000 1.0
C      1  0.5721520000000  0.4458160000000  0.5176980000000 1.0
C      1  0.4464360000000  0.5182280000000  0.5745810000000 1.0
C      1  0.5176090000000  0.4275940000000  0.5564610000000 1.0
C      1  0.4821300000000  0.5755020000000  0.5539630000000 1.0
C      1  0.4818470000000  0.4249380000000  0.4458000000000 1.0
C      1  0.5721550000000  0.5541800000000  0.4821600000000 1.0
C      1  0.4242180000000  0.4440980000000  0.4813970000000 1.0
C      1  0.4247560000000  0.5555880000000  0.5184560000000 1.0
C      1  0.4442760000000  0.4811600000000  0.4247840000000 1.0
C      1  0.5554250000000  0.5179580000000  0.4260000000000 1.0
C      1  0.5564890000000  0.4818160000000  0.5735430000000 1.0
C      1  0.5178580000000  0.4458770000000  0.5752390000000 1.0
C      1  0.5731860000000  0.5177590000000  0.4454090000000 1.0
C      1  0.4430810000000  0.5741190000000  0.5183210000000 1.0
C      1  0.5187770000000  0.5563020000000  0.4244930000000 1.0
C      1  0.4824040000000  0.5568260000000  0.5724800000000 1.0
C      1  0.4817950000000  0.4436000000000  0.4271430000000 1.0
C      1  0.5742530000000  0.4818650000000  0.5546670000000 1.0
C      1  0.4257370000000  0.4810460000000  0.4432230000000 1.0
C      1  0.4275350000000  0.5183180000000  0.5561340000000 1.0
C      1  0.4428840000000  0.4259190000000  0.4816060000000 1.0
C      1  0.5532870000000  0.4270230000000  0.5176880000000 1.0
C      1  0.5537220000000  0.5734300000000  0.4819650000000 1.0
C      1  0.4256960000000  0.4889030000000  0.5851420000000 1.0
C      1  0.4882460000000  0.5850790000000  0.4250880000000 1.0
C      1  0.5847560000000  0.4269050000000  0.4891610000000 1.0
C      1  0.4235800000000  0.5107550000000  0.4144090000000 1.0
C      1  0.5762190000000  0.4885460000000  0.4162130000000 1.0
C      1  0.5748440000000  0.5115840000000  0.5841920000000 1.0
C      1  0.4884740000000  0.4151170000000  0.5745870000000 1.0
C      1  0.5119970000000  0.5852880000000  0.5745100000000 1.0
C      1  0.5115240000000  0.4148040000000  0.4252740000000 1.0
C      1  0.5848110000000  0.5735090000000  0.5105890000000 1.0
C      1  0.4146460000000  0.4236710000000  0.5115590000000 1.0
C      1  0.4147230000000  0.5761010000000  0.4885280000000 1.0
C      1  0.4250280000000  0.5863030000000  0.4889140000000 1.0
C      1  0.4881040000000  0.4252630000000  0.5849410000000 1.0
C      1  0.5861640000000  0.4888610000000  0.4266760000000 1.0
C      1  0.4250680000000  0.4135910000000  0.5111550000000 1.0
C      1  0.5744160000000  0.4168500000000  0.4886900000000 1.0
C      1  0.5746700000000  0.5837810000000  0.5108600000000 1.0
C      1  0.4879730000000  0.5743950000000  0.4151170000000 1.0
C      1  0.5116560000000  0.5749740000000  0.5847000000000 1.0
C      1  0.5114270000000  0.4254740000000  0.4154610000000 1.0
C      1  0.5849850000000  0.5117180000000  0.5738050000000 1.0
C      1  0.4138670000000  0.5106920000000  0.4251730000000 1.0
C      1  0.4158230000000  0.4889520000000  0.5745440000000 1.0
C      1  0.5870100000000  0.5040090000000  0.5460290000000 1.0
C      1  0.5018170000000  0.5486450000000  0.5881910000000 1.0
C      1  0.5470780000000  0.5865140000000  0.5044800000000 1.0
C      1  0.5872060000000  0.4963470000000  0.4544710000000 1.0
C      1  0.4118440000000  0.5017570000000  0.4518130000000 1.0
C      1  0.4131860000000  0.4977820000000  0.5479140000000 1.0
C      1  0.5024190000000  0.4520420000000  0.4129630000000 1.0
C      1  0.4974000000000  0.5479020000000  0.4118700000000 1.0
C      1  0.4951830000000  0.4528090000000  0.5877230000000 1.0
C      1  0.5468510000000  0.4141250000000  0.4950340000000 1.0
C      1  0.4513790000000  0.5895950000000  0.4988160000000 1.0
C      1  0.4513750000000  0.4105820000000  0.5011740000000 1.0
C      1  0.5863970000000  0.5456030000000  0.5036120000000 1.0
C      1  0.5050560000000  0.5877500000000  0.5469470000000 1.0
C      1  0.5486450000000  0.5016190000000  0.5886190000000 1.0
C      1  0.5866230000000  0.4546870000000  0.4965800000000 1.0
C      1  0.4118500000000  0.4509580000000  0.5039810000000 1.0
C      1  0.4120780000000  0.5487860000000  0.4960240000000 1.0
C      1  0.5046870000000  0.4124150000000  0.4528310000000 1.0
C      1  0.4983720000000  0.4117750000000  0.5482690000000 1.0
C      1  0.4985890000000  0.5890950000000  0.4512290000000 1.0
C      1  0.5489920000000  0.4959710000000  0.4127950000000 1.0
C      1  0.4533140000000  0.4955460000000  0.5876230000000 1.0
C      1  0.4509170000000  0.5033940000000  0.4115750000000 1.0
C      1  0.5684450000000  0.4797330000000  0.4087950000000 1.0
C      1  0.4805630000000  0.4076250000000  0.5659310000000 1.0
C      1  0.4076330000000  0.5680580000000  0.4797020000000 1.0
C      1  0.5663280000000  0.5196880000000  0.5916370000000 1.0
C      1  0.4332340000000  0.4802750000000  0.5928750000000 1.0
C      1  0.4314650000000  0.5194590000000  0.4070110000000 1.0
C      1  0.4802360000000  0.5922420000000  0.4339220000000 1.0
C      1  0.5202790000000  0.4073270000000  0.4329670000000 1.0
C      1  0.5208100000000  0.5926130000000  0.5667500000000 1.0
C      1  0.4076730000000  0.4317420000000  0.5204640000000 1.0
C      1  0.5928840000000  0.5657310000000  0.5186250000000 1.0
C      1  0.5929590000000  0.4347430000000  0.4813000000000 1.0
C      1  0.5670840000000  0.4090890000000  0.4799060000000 1.0
C      1  0.4794640000000  0.5655570000000  0.4086000000000 1.0
C      1  0.4086850000000  0.4806100000000  0.5659910000000 1.0
C      1  0.5673220000000  0.5916600000000  0.5195380000000 1.0
C      1  0.4337960000000  0.5934780000000  0.4808300000000 1.0
C      1  0.4339060000000  0.4064700000000  0.5192090000000 1.0
C      1  0.4793350000000  0.4330170000000  0.5923110000000 1.0
C      1  0.5197670000000  0.4341290000000  0.4084450000000 1.0
C      1  0.5196450000000  0.5663640000000  0.5921700000000 1.0
C      1  0.4072380000000  0.5191720000000  0.4340040000000 1.0
C      1  0.5923860000000  0.5200510000000  0.5656750000000 1.0
C      1  0.5937790000000  0.4807540000000  0.4348220000000 1.0
C      1  0.4015650000000  0.5449370000000  0.4758300000000 1.0
C      1  0.5454250000000  0.4758230000000  0.4022370000000 1.0
C      1  0.4772750000000  0.3997480000000  0.5430830000000 1.0
C      1  0.4017580000000  0.4548930000000  0.5243810000000 1.0
C      1  0.5985960000000  0.5425430000000  0.5232210000000 1.0
C      1  0.5990530000000  0.4579230000000  0.4771650000000 1.0
C      1  0.5436270000000  0.5231980000000  0.5998060000000 1.0
C      1  0.4563950000000  0.4753910000000  0.5986740000000 1.0
C      1  0.4545400000000  0.5235890000000  0.4009170000000 1.0
C      1  0.4770360000000  0.6003230000000  0.4566900000000 1.0
C      1  0.5251030000000  0.4019640000000  0.4562380000000 1.0
C      1  0.5254550000000  0.5981790000000  0.5434750000000 1.0
C      1  0.4028810000000  0.4758660000000  0.5423680000000 1.0
C      1  0.5439990000000  0.4028760000000  0.4750480000000 1.0
C      1  0.4751710000000  0.5420100000000  0.4023890000000 1.0
C      1  0.4021220000000  0.5239210000000  0.4577910000000 1.0
C      1  0.5983860000000  0.5240040000000  0.5424800000000 1.0
C      1  0.5992830000000  0.4767400000000  0.4581340000000 1.0
C      1  0.5441930000000  0.5977260000000  0.5244900000000 1.0
C      1  0.4567460000000  0.6008690000000  0.4772490000000 1.0
C      1  0.4569250000000  0.3992400000000  0.5226470000000 1.0
C      1  0.4749530000000  0.4562280000000  0.5983910000000 1.0
C      1  0.5244530000000  0.4578120000000  0.4028430000000 1.0
C      1  0.5231920000000  0.5435150000000  0.5998980000000 1.0
C      1  0.5388230000000  0.5816300000000  0.5908470000000 1.0
C      1  0.5835790000000  0.5902090000000  0.5375970000000 1.0
C      1  0.5902950000000  0.5389760000000  0.5808590000000 1.0
C      1  0.5383850000000  0.4180510000000  0.4087950000000 1.0
C      1  0.4606070000000  0.5811260000000  0.4106290000000 1.0
C      1  0.4607510000000  0.4175210000000  0.5898280000000 1.0
C      1  0.5833570000000  0.4107480000000  0.4619140000000 1.0
C      1  0.4188180000000  0.5916350000000  0.4613990000000 1.0
C      1  0.4190720000000  0.4081850000000  0.5387410000000 1.0
C      1  0.5925170000000  0.4615140000000  0.4197280000000 1.0
C      1  0.4079410000000  0.5380250000000  0.4181430000000 1.0
C      1  0.4089970000000  0.4621530000000  0.5822130000000 1.0
C      1  0.5393430000000  0.5904450000000  0.5823700000000 1.0
C      1  0.5814990000000  0.5387980000000  0.5893990000000 1.0
C      1  0.5922890000000  0.5816010000000  0.5372410000000 1.0
C      1  0.5387340000000  0.4091600000000  0.4171990000000 1.0
C      1  0.4612910000000  0.4090160000000  0.5810210000000 1.0
C      1  0.4608340000000  0.5898810000000  0.4191850000000 1.0
C      1  0.5836470000000  0.4610400000000  0.4112570000000 1.0
C      1  0.4173230000000  0.4618860000000  0.5911810000000 1.0
C      1  0.4164060000000  0.5383670000000  0.4093030000000 1.0
C      1  0.5921740000000  0.4192570000000  0.4624100000000 1.0
C      1  0.4104360000000  0.4168610000000  0.5393640000000 1.0
C      1  0.4101600000000  0.5829760000000  0.4608270000000 1.0
C      1  0.4305770000000  0.4024880000000  0.5325120000000 1.0
C      1  0.4029060000000  0.5321960000000  0.4301000000000 1.0
C      1  0.5326840000000  0.4301050000000  0.4038980000000 1.0
C      1  0.4303630000000  0.5973790000000  0.4675320000000 1.0
C      1  0.5713150000000  0.4049990000000  0.4668620000000 1.0
C      1  0.5715640000000  0.5958600000000  0.5325330000000 1.0
C      1  0.4040760000000  0.4677540000000  0.5701100000000 1.0
C      1  0.5964260000000  0.5332830000000  0.5692840000000 1.0
C      1  0.5982920000000  0.4676670000000  0.4312160000000 1.0
C      1  0.5328380000000  0.5699100000000  0.5963290000000 1.0
C      1  0.4660700000000  0.4292030000000  0.5960070000000 1.0
C      1  0.4662660000000  0.5693720000000  0.4048300000000 1.0
C      1  0.4280760000000  0.5328790000000  0.4034080000000 1.0
C      1  0.4043910000000  0.4285710000000  0.5340460000000 1.0
C      1  0.5334640000000  0.4034380000000  0.4290420000000 1.0
C      1  0.4291120000000  0.4672370000000  0.5970040000000 1.0
C      1  0.5718260000000  0.4662470000000  0.4052880000000 1.0
C      1  0.5698800000000  0.5329920000000  0.5953940000000 1.0
C      1  0.4041390000000  0.5712660000000  0.4661850000000 1.0
C      1  0.5977120000000  0.5697760000000  0.5314670000000 1.0
C      1  0.5978170000000  0.4308810000000  0.4684200000000 1.0
C      1  0.5340580000000  0.5963700000000  0.5705900000000 1.0
C      1  0.4668890000000  0.5959880000000  0.4306070000000 1.0
C      1  0.4673910000000  0.4033700000000  0.5694010000000 1.0
C      1  0.4589120000000  0.4195320000000  0.4404730000000 1.0
C      1  0.4193890000000  0.4394150000000  0.4583590000000 1.0
C      1  0.4400810000000  0.4581450000000  0.4197420000000 1.0
C      1  0.4590970000000  0.5805240000000  0.5593980000000 1.0
C      1  0.5400320000000  0.4212260000000  0.5604260000000 1.0
C      1  0.5412390000000  0.5798830000000  0.4391020000000 1.0
C      1  0.4199650000000  0.5599140000000  0.5415480000000 1.0
C      1  0.5787560000000  0.4396180000000  0.5401740000000 1.0
C      1  0.5790090000000  0.5599690000000  0.4596740000000 1.0
C      1  0.4413100000000  0.5412390000000  0.5798950000000 1.0
C      1  0.5607070000000  0.4593650000000  0.5794630000000 1.0
C      1  0.5603950000000  0.5405660000000  0.4203970000000 1.0
C      1  0.4594260000000  0.4388760000000  0.4207530000000 1.0
C      1  0.4200360000000  0.4584150000000  0.4388030000000 1.0
C      1  0.4389390000000  0.4198450000000  0.4590700000000 1.0
C      1  0.4600530000000  0.5610670000000  0.5790120000000 1.0
C      1  0.5415730000000  0.5602740000000  0.4194770000000 1.0
C      1  0.5409040000000  0.4406440000000  0.5801450000000 1.0
C      1  0.4212550000000  0.5407020000000  0.5608850000000 1.0
C      1  0.5795660000000  0.5405140000000  0.4399960000000 1.0
C      1  0.5799850000000  0.4588670000000  0.5599590000000 1.0
C      1  0.4390670000000  0.5799360000000  0.5409140000000 1.0
C      1  0.5595470000000  0.5792000000000  0.4593160000000 1.0
C      1  0.5586010000000  0.4211070000000  0.5403720000000 1.0
C      1  0.4235760000000  0.4703810000000  0.4321160000000 1.0
C      1  0.4713650000000  0.4323580000000  0.4246790000000 1.0
C      1  0.4319590000000  0.4234020000000  0.4708560000000 1.0
C      1  0.4252710000000  0.5287940000000  0.5673820000000 1.0
C      1  0.5770650000000  0.4713250000000  0.5662140000000 1.0
C      1  0.5761710000000  0.5281930000000  0.4337610000000 1.0
C      1  0.4717970000000  0.5678890000000  0.5750540000000 1.0
C      1  0.5284670000000  0.4344330000000  0.5771990000000 1.0
C      1  0.5295190000000  0.5671260000000  0.4223510000000 1.0
C      1  0.4321260000000  0.5763270000000  0.5291240000000 1.0
C      1  0.5647500000000  0.4244550000000  0.5280360000000 1.0
C      1  0.5654350000000  0.5756550000000  0.4717080000000 1.0
C      1  0.4222380000000  0.4329670000000  0.4706950000000 1.0
C      1  0.4713260000000  0.4226570000000  0.4342830000000 1.0
C      1  0.4333420000000  0.4703230000000  0.4225670000000 1.0
C      1  0.4226120000000  0.5665590000000  0.5292730000000 1.0
C      1  0.5750400000000  0.5659910000000  0.4719120000000 1.0
C      1  0.5746650000000  0.4338030000000  0.5278730000000 1.0
C      1  0.4716090000000  0.5776000000000  0.5654980000000 1.0
C      1  0.5294160000000  0.5767960000000  0.4319870000000 1.0
C      1  0.5283120000000  0.4249850000000  0.5673920000000 1.0
C      1  0.4349930000000  0.5288490000000  0.5769580000000 1.0
C      1  0.5666570000000  0.5283840000000  0.4239940000000 1.0
C      1  0.5674560000000  0.4712400000000  0.5758680000000 1.0
C      1  0.4994450000000  0.5808080000000  0.5689720000000 1.0
C      1  0.5786560000000  0.5678660000000  0.4989250000000 1.0
C      1  0.5706110000000  0.4988670000000  0.5791420000000 1.0
C      1  0.4989940000000  0.4193320000000  0.4308350000000 1.0
C      1  0.5015250000000  0.5810670000000  0.4287460000000 1.0
C      1  0.5010360000000  0.4206040000000  0.5704370000000 1.0
C      1  0.5786420000000  0.4324000000000  0.5009060000000 1.0
C      1  0.4190310000000  0.5708320000000  0.5012910000000 1.0
C      1  0.4188030000000  0.4289120000000  0.4987230000000 1.0
C      1  0.5706320000000  0.5008540000000  0.4212950000000 1.0
C      1  0.4289590000000  0.4980680000000  0.4188070000000 1.0
C      1  0.4314040000000  0.5012790000000  0.5804230000000 1.0
C      1  0.4991090000000  0.5707610000000  0.5792240000000 1.0
C      1  0.5804230000000  0.4991340000000  0.5686350000000 1.0
C      1  0.5686650000000  0.5781650000000  0.4990390000000 1.0
C      1  0.4988500000000  0.4296750000000  0.4208740000000 1.0
C      1  0.5006710000000  0.4307990000000  0.5805460000000 1.0
C      1  0.5012790000000  0.5705660000000  0.4188600000000 1.0
C      1  0.5803810000000  0.5009610000000  0.4318540000000 1.0
C      1  0.4213540000000  0.5014120000000  0.5701770000000 1.0
C      1  0.4190610000000  0.4979530000000  0.4292300000000 1.0
C      1  0.5684350000000  0.4223150000000  0.5005950000000 1.0
C      1  0.4289840000000  0.4187740000000  0.4983560000000 1.0
C      1  0.4290640000000  0.5811170000000  0.5016700000000 1.0
C      1  0.5531040000000  0.5143700000000  0.5939440000000 1.0
C      1  0.5164020000000  0.5937260000000  0.5532940000000 1.0
C      1  0.5935000000000  0.5521410000000  0.5142730000000 1.0
C      1  0.5552320000000  0.4844690000000  0.4071540000000 1.0
C      1  0.4447070000000  0.5147600000000  0.4055840000000 1.0
C      1  0.4467490000000  0.4845100000000  0.5939490000000 1.0
C      1  0.5159580000000  0.4063120000000  0.4464480000000 1.0
C      1  0.4857710000000  0.5944900000000  0.4470620000000 1.0
C      1  0.4858880000000  0.4058010000000  0.5526550000000 1.0
C      1  0.5937530000000  0.4482430000000  0.4858960000000 1.0
C      1  0.4062520000000  0.5548570000000  0.4845180000000 1.0
C      1  0.4062310000000  0.4449330000000  0.5156250000000 1.0
C      1  0.5537600000000  0.5927640000000  0.5154560000000 1.0
C      1  0.5144080000000  0.5530470000000  0.5940020000000 1.0
C      1  0.5934670000000  0.5151940000000  0.5522860000000 1.0
C      1  0.5535480000000  0.4079330000000  0.4840300000000 1.0
C      1  0.4471980000000  0.4048260000000  0.5138610000000 1.0
C      1  0.4471050000000  0.5952590000000  0.4861180000000 1.0
C      1  0.5151480000000  0.4478160000000  0.4075430000000 1.0
C      1  0.4838540000000  0.4464250000000  0.5936530000000 1.0
C      1  0.4844290000000  0.5520320000000  0.4070620000000 1.0
C      1  0.5943130000000  0.4854850000000  0.4482800000000 1.0
C      1  0.4077140000000  0.4851530000000  0.5522890000000 1.0
C      1  0.4065160000000  0.5145490000000  0.4477000000000 1.0
C      1  0.6045670000000  0.4641580000000  0.4546590000000 1.0
C      1  0.4621860000000  0.4525110000000  0.6029040000000 1.0
C      1  0.4535070000000  0.6041690000000  0.4636670000000 1.0
C      1  0.6033720000000  0.5366740000000  0.5459900000000 1.0
C      1  0.3982740000000  0.4628500000000  0.5468690000000 1.0
C      1  0.3975330000000  0.5370110000000  0.4534340000000 1.0
C      1  0.4620370000000  0.5463240000000  0.3979260000000 1.0
C      1  0.5375820000000  0.4533980000000  0.3984000000000 1.0
C      1  0.5367760000000  0.5467850000000  0.6031960000000 1.0
C      1  0.4537740000000  0.3957610000000  0.5362110000000 1.0
C      1  0.5482260000000  0.6023070000000  0.5371360000000 1.0
C      1  0.5480030000000  0.3982470000000  0.4624190000000 1.0
C      1  0.6044400000000  0.4542180000000  0.4647050000000 1.0
C      1  0.4634870000000  0.6037890000000  0.4535180000000 1.0
C      1  0.4524170000000  0.4626770000000  0.6032070000000 1.0
C      1  0.6037160000000  0.5464040000000  0.5357620000000 1.0
C      1  0.3975820000000  0.5476780000000  0.4627270000000 1.0
C      1  0.3980370000000  0.4521900000000  0.5375760000000 1.0
C      1  0.4638140000000  0.3960390000000  0.5463140000000 1.0
C      1  0.5379810000000  0.3977120000000  0.4524930000000 1.0
C      1  0.5383130000000  0.6025090000000  0.5471740000000 1.0
C      1  0.4516340000000  0.5367680000000  0.3972240000000 1.0
C      1  0.5469040000000  0.5367720000000  0.6030090000000 1.0
C      1  0.5482620000000  0.4626830000000  0.3984800000000 1.0
C      1  0.4121590000000  0.5118010000000  0.5264380000000 1.0
C      1  0.5114840000000  0.5264010000000  0.4110000000000 1.0
C      1  0.5242370000000  0.4134970000000  0.5036950000000 1.0
C      1  0.4112590000000  0.4877600000000  0.4733540000000 1.0
C      1  0.5854540000000  0.5025230000000  0.4795590000000 1.0
C      1  0.5856060000000  0.4977650000000  0.5208940000000 1.0
C      1  0.5042390000000  0.4753160000000  0.5879840000000 1.0
C      1  0.4880390000000  0.5266770000000  0.5882100000000 1.0
C      1  0.4881610000000  0.4733760000000  0.4120160000000 1.0
C      1  0.5245180000000  0.5871590000000  0.4957780000000 1.0
C      1  0.4733590000000  0.4110320000000  0.4874520000000 1.0
C      1  0.4734630000000  0.5893860000000  0.5124310000000 1.0
C      1  0.4122560000000  0.5264400000000  0.5054530000000 1.0
C      1  0.5120090000000  0.4120640000000  0.5262370000000 1.0
C      1  0.5266580000000  0.5057650000000  0.4117660000000 1.0
C      1  0.4118250000000  0.4732580000000  0.4944370000000 1.0
C      1  0.5854790000000  0.4797750000000  0.5027310000000 1.0
C      1  0.5851980000000  0.5205050000000  0.4977050000000 1.0
C      1  0.5123230000000  0.5888170000000  0.4732170000000 1.0
C      1  0.4961160000000  0.5877870000000  0.5244790000000 1.0
C      1  0.4959550000000  0.4126320000000  0.4753380000000 1.0
C      1  0.5266480000000  0.4878640000000  0.5892720000000 1.0
C      1  0.4733680000000  0.4942650000000  0.4119180000000 1.0
C      1  0.4759160000000  0.5040240000000  0.5873700000000 1.0
C      1  0.5152600000000  0.4811660000000  0.5884260000000 1.0
C      1  0.4849380000000  0.5882970000000  0.5189260000000 1.0
C      1  0.5844580000000  0.5111650000000  0.4889650000000 1.0
C      1  0.5193790000000  0.5158470000000  0.4112390000000 1.0
C      1  0.4804140000000  0.4840100000000  0.4120040000000 1.0
C      1  0.4815190000000  0.5151960000000  0.5874790000000 1.0
C      1  0.4848030000000  0.4121590000000  0.4809380000000 1.0
C      1  0.5188720000000  0.5877010000000  0.4846480000000 1.0
C      1  0.5185090000000  0.4130900000000  0.5147800000000 1.0
C      1  0.5847130000000  0.4891180000000  0.5114730000000 1.0
C      1  0.4122250000000  0.5194840000000  0.5157630000000 1.0
C      1  0.4115490000000  0.4801220000000  0.4840670000000 1.0
END
