TITL C-66626-9157-3 11.523368866963 1000000 -3698.6129932436 0 0 540 (Th) n - 1
REM
REM in /home/chem/mssmkc/work/GAP20/Larger-Clusters/Only-C240/New/BUILD-ONLY/Try2-C540
REM
REM
REM
REM
REM
REM ./C.cell (4d22446d3c8a03e2533cb19ef5564aa4)
REM
REM compiler GCC version 8.3.0
REM options -cpp -mtune=generic -march=x86-64 -g -O0
REM seed 1412784609 -1886939864 -1525799426 599530801 -1388916574 -2049096600 1780074628 986239768 -1414169503 -841782514 -1758484315 274205740 -491055916 -381923977 288066390 1370107466 1991496668 -1330956743 -749684333 983490553 957541805 -1285547053 -2055689552 540873329 -1650882064 -1674119415 770721677 1947523988 253624734 -479583866 -2025804301 -1925860801 -1666685878
REM
CELL 1.54180  100.00000  100.00000  100.00000   90.00000   90.00000   90.00000
LATT -1
SFAC C  
C      1  0.6149260000000  0.4921730000000  0.4753190000000 1.0
C      1  0.4936050000000  0.4770530000000  0.6153730000000 1.0
C      1  0.4765410000000  0.6151770000000  0.4921130000000 1.0
C      1  0.6152690000000  0.5063720000000  0.5234680000000 1.0
C      1  0.3849880000000  0.4941120000000  0.5248190000000 1.0
C      1  0.3848170000000  0.5073430000000  0.4763940000000 1.0
C      1  0.4926800000000  0.5230340000000  0.3846990000000 1.0
C      1  0.5060920000000  0.4746610000000  0.3851120000000 1.0
C      1  0.5076230000000  0.5252520000000  0.6148150000000 1.0
C      1  0.4751710000000  0.3851280000000  0.5081410000000 1.0
C      1  0.5249020000000  0.6150100000000  0.5055740000000 1.0
C      1  0.5233860000000  0.3846850000000  0.4941720000000 1.0
C      1  0.3847310000000  0.4936280000000  0.4765320000000 1.0
C      1  0.5073200000000  0.4769660000000  0.6153010000000 1.0
C      1  0.5248290000000  0.6148720000000  0.4918590000000 1.0
C      1  0.3850740000000  0.5078270000000  0.5246810000000 1.0
C      1  0.6151830000000  0.4926570000000  0.5236060000000 1.0
C      1  0.6150120000000  0.5058880000000  0.4751810000000 1.0
C      1  0.5063950000000  0.5229470000000  0.3846270000000 1.0
C      1  0.4923770000000  0.4747480000000  0.3851850000000 1.0
C      1  0.4939080000000  0.5253390000000  0.6148880000000 1.0
C      1  0.5234590000000  0.3848230000000  0.5078860000000 1.0
C      1  0.4766140000000  0.6153150000000  0.5058280000000 1.0
C      1  0.4750980000000  0.3849900000000  0.4944260000000 1.0
C      1  0.5499740000000  0.4766010000000  0.4010750000000 1.0
C      1  0.4775610000000  0.4017670000000  0.5517480000000 1.0
C      1  0.4013160000000  0.5510410000000  0.4779240000000 1.0
C      1  0.5513050000000  0.5227590000000  0.5983920000000 1.0
C      1  0.4497490000000  0.4792220000000  0.5993690000000 1.0
C      1  0.4489720000000  0.5214180000000  0.4011650000000 1.0
C      1  0.4782600000000  0.5985120000000  0.4484850000000 1.0
C      1  0.5212000000000  0.4004740000000  0.4502390000000 1.0
C      1  0.5229790000000  0.5992470000000  0.5495280000000 1.0
C      1  0.4009170000000  0.4502090000000  0.5231190000000 1.0
C      1  0.5993190000000  0.5502340000000  0.5210590000000 1.0
C      1  0.5984480000000  0.4485160000000  0.4778990000000 1.0
C      1  0.4486950000000  0.4772410000000  0.4016080000000 1.0
C      1  0.5217400000000  0.4014880000000  0.5515150000000 1.0
C      1  0.5990830000000  0.5497910000000  0.4768810000000 1.0
C      1  0.4500260000000  0.5233990000000  0.5989250000000 1.0
C      1  0.5510280000000  0.4785820000000  0.5988350000000 1.0
C      1  0.5502510000000  0.5207780000000  0.4006310000000 1.0
C      1  0.5224390000000  0.5982330000000  0.4482520000000 1.0
C      1  0.4770210000000  0.4007530000000  0.4504720000000 1.0
C      1  0.4788000000000  0.5995260000000  0.5497610000000 1.0
C      1  0.5986840000000  0.4489590000000  0.5220760000000 1.0
C      1  0.4015520000000  0.5514840000000  0.5221010000000 1.0
C      1  0.4006810000000  0.4497660000000  0.4789410000000 1.0
C      1  0.6097090000000  0.4821000000000  0.4529240000000 1.0
C      1  0.4835570000000  0.4545440000000  0.6106170000000 1.0
C      1  0.4539350000000  0.6101860000000  0.4824030000000 1.0
C      1  0.6104170000000  0.5165080000000  0.5459160000000 1.0
C      1  0.3900810000000  0.4844260000000  0.5474120000000 1.0
C      1  0.3897930000000  0.5169650000000  0.4537480000000 1.0
C      1  0.4829680000000  0.5456680000000  0.3895600000000 1.0
C      1  0.5158580000000  0.4521280000000  0.3903210000000 1.0
C      1  0.5176170000000  0.5476600000000  0.6095030000000 1.0
C      1  0.4527340000000  0.3904030000000  0.5180890000000 1.0
C      1  0.5474450000000  0.6099320000000  0.5153850000000 1.0
C      1  0.5458870000000  0.3894780000000  0.4841230000000 1.0
C      1  0.3895830000000  0.4834920000000  0.4540840000000 1.0
C      1  0.5170320000000  0.4543320000000  0.6104400000000 1.0
C      1  0.5472660000000  0.6095960000000  0.4819110000000 1.0
C      1  0.3902910000000  0.5179000000000  0.5470760000000 1.0
C      1  0.6102070000000  0.4830350000000  0.5462520000000 1.0
C      1  0.6099190000000  0.5155740000000  0.4525880000000 1.0
C      1  0.5164430000000  0.5454560000000  0.3893830000000 1.0
C      1  0.4823830000000  0.4523400000000  0.3904970000000 1.0
C      1  0.4841420000000  0.5478720000000  0.6096790000000 1.0
C      1  0.5460650000000  0.3898140000000  0.5175970000000 1.0
C      1  0.4541130000000  0.6105220000000  0.5158770000000 1.0
C      1  0.4525550000000  0.3900680000000  0.4846150000000 1.0
C      1  0.6087790000000  0.4732260000000  0.5212630000000 1.0
C      1  0.4744130000000  0.5228280000000  0.6087470000000 1.0
C      1  0.5221150000000  0.6084250000000  0.4724910000000 1.0
C      1  0.6088780000000  0.5253980000000  0.4775900000000 1.0
C      1  0.3908920000000  0.4741700000000  0.4792650000000 1.0
C      1  0.3914510000000  0.5272060000000  0.5218820000000 1.0
C      1  0.4729820000000  0.4775040000000  0.3915300000000 1.0
C      1  0.5258580000000  0.5203160000000  0.3908190000000 1.0
C      1  0.5267480000000  0.4793510000000  0.6089030000000 1.0
C      1  0.5210310000000  0.3913020000000  0.5272820000000 1.0
C      1  0.4792490000000  0.6092240000000  0.5253220000000 1.0
C      1  0.4776040000000  0.3910480000000  0.4749050000000 1.0
C      1  0.3911220000000  0.4746020000000  0.5224100000000 1.0
C      1  0.5270190000000  0.5224960000000  0.6084700000000 1.0
C      1  0.4789690000000  0.6086980000000  0.4727180000000 1.0
C      1  0.3912210000000  0.5267740000000  0.4787370000000 1.0
C      1  0.6085490000000  0.4727940000000  0.4781180000000 1.0
C      1  0.6091080000000  0.5258300000000  0.5207350000000 1.0
C      1  0.5255870000000  0.4771720000000  0.3912530000000 1.0
C      1  0.4732520000000  0.5206490000000  0.3910970000000 1.0
C      1  0.4741420000000  0.4796840000000  0.6091810000000 1.0
C      1  0.4778850000000  0.3915750000000  0.5275090000000 1.0
C      1  0.5223960000000  0.6089520000000  0.5250950000000 1.0
C      1  0.5207510000000  0.3907760000000  0.4746780000000 1.0
C      1  0.5689390000000  0.6096370000000  0.5055980000000 1.0
C      1  0.6104090000000  0.5070510000000  0.5675590000000 1.0
C      1  0.5080770000000  0.5692670000000  0.6092750000000 1.0
C      1  0.5674850000000  0.3895010000000  0.4936830000000 1.0
C      1  0.4324400000000  0.6103580000000  0.4921910000000 1.0
C      1  0.4311360000000  0.3905050000000  0.5085280000000 1.0
C      1  0.6095930000000  0.4915590000000  0.4312810000000 1.0
C      1  0.3896790000000  0.5070750000000  0.4322990000000 1.0
C      1  0.3903180000000  0.4943150000000  0.5688610000000 1.0
C      1  0.5060490000000  0.4306440000000  0.3906500000000 1.0
C      1  0.4927780000000  0.5671530000000  0.3893540000000 1.0
C      1  0.4930960000000  0.4329360000000  0.6107200000000 1.0
C      1  0.4325150000000  0.6104990000000  0.5063170000000 1.0
C      1  0.3904070000000  0.5084410000000  0.5687190000000 1.0
C      1  0.4939510000000  0.5693560000000  0.6093500000000 1.0
C      1  0.4310610000000  0.3903630000000  0.4944020000000 1.0
C      1  0.5688640000000  0.6094950000000  0.4914720000000 1.0
C      1  0.5675600000000  0.3896420000000  0.5078090000000 1.0
C      1  0.3895910000000  0.4929490000000  0.4324400000000 1.0
C      1  0.6096820000000  0.5056850000000  0.4311390000000 1.0
C      1  0.6103210000000  0.4929250000000  0.5677010000000 1.0
C      1  0.4919230000000  0.4307330000000  0.3907250000000 1.0
C      1  0.5069040000000  0.5670640000000  0.3892800000000 1.0
C      1  0.5072220000000  0.4328470000000  0.6106460000000 1.0
C      1  0.5886190000000  0.4652000000000  0.4291040000000 1.0
C      1  0.4665040000000  0.4303430000000  0.5900910000000 1.0
C      1  0.4296160000000  0.5893150000000  0.4659490000000 1.0
C      1  0.5897940000000  0.5336720000000  0.5699560000000 1.0
C      1  0.4109610000000  0.4677450000000  0.5715690000000 1.0
C      1  0.4106260000000  0.5333820000000  0.4293710000000 1.0
C      1  0.4664400000000  0.5700810000000  0.4102620000000 1.0
C      1  0.5326090000000  0.4281330000000  0.4113300000000 1.0
C      1  0.5344470000000  0.5714430000000  0.5883160000000 1.0
C      1  0.4288550000000  0.4115800000000  0.5347960000000 1.0
C      1  0.5715030000000  0.5890920000000  0.5322580000000 1.0
C      1  0.5700270000000  0.4100140000000  0.4669960000000 1.0
C      1  0.4102060000000  0.4663280000000  0.4300440000000 1.0
C      1  0.5335600000000  0.4299190000000  0.5897380000000 1.0
C      1  0.5711450000000  0.5884200000000  0.4652040000000 1.0
C      1  0.4113810000000  0.5347990000000  0.5708960000000 1.0
C      1  0.5893740000000  0.4666180000000  0.5706290000000 1.0
C      1  0.5890390000000  0.5322550000000  0.4284310000000 1.0
C      1  0.5334960000000  0.5696570000000  0.4099090000000 1.0
C      1  0.4655530000000  0.4285570000000  0.4116840000000 1.0
C      1  0.4673910000000  0.5718670000000  0.5886690000000 1.0
C      1  0.5703840000000  0.4106850000000  0.5340510000000 1.0
C      1  0.4299730000000  0.5899860000000  0.5330040000000 1.0
C      1  0.4284970000000  0.4109080000000  0.4677420000000 1.0
C      1  0.5186480000000  0.5340260000000  0.6121480000000 1.0
C      1  0.5338140000000  0.6125430000000  0.5165350000000 1.0
C      1  0.6128650000000  0.5174590000000  0.5322390000000 1.0
C      1  0.5170330000000  0.4657480000000  0.3876640000000 1.0
C      1  0.4817660000000  0.5319970000000  0.3871880000000 1.0
C      1  0.4825530000000  0.4682280000000  0.6130000000000 1.0
C      1  0.5322120000000  0.3870390000000  0.4831170000000 1.0
C      1  0.4675980000000  0.6126030000000  0.4812030000000 1.0
C      1  0.4663770000000  0.3878140000000  0.5191450000000 1.0
C      1  0.6122900000000  0.4811180000000  0.4665740000000 1.0
C      1  0.3873580000000  0.5182210000000  0.4674020000000 1.0
C      1  0.3874870000000  0.4832020000000  0.5337840000000 1.0
C      1  0.4829670000000  0.5342520000000  0.6123360000000 1.0
C      1  0.4677880000000  0.6129610000000  0.5168830000000 1.0
C      1  0.3877100000000  0.5188820000000  0.5334260000000 1.0
C      1  0.4813520000000  0.4659740000000  0.3878520000000 1.0
C      1  0.5174470000000  0.5317720000000  0.3870000000000 1.0
C      1  0.5182340000000  0.4680030000000  0.6128120000000 1.0
C      1  0.4661860000000  0.3874570000000  0.4834650000000 1.0
C      1  0.5336230000000  0.6121860000000  0.4808550000000 1.0
C      1  0.5324020000000  0.3873970000000  0.5187970000000 1.0
C      1  0.3871350000000  0.4825410000000  0.4677610000000 1.0
C      1  0.6125130000000  0.5167970000000  0.4662160000000 1.0
C      1  0.6126420000000  0.4817790000000  0.5325980000000 1.0
C      1  0.5722580000000  0.4164800000000  0.4548140000000 1.0
C      1  0.4174990000000  0.4556220000000  0.5739110000000 1.0
C      1  0.4543840000000  0.5724780000000  0.4169050000000 1.0
C      1  0.5737800000000  0.5825970000000  0.5444170000000 1.0
C      1  0.4267060000000  0.4183170000000  0.5468460000000 1.0
C      1  0.4272550000000  0.5826060000000  0.4539230000000 1.0
C      1  0.4172920000000  0.5454220000000  0.4269600000000 1.0
C      1  0.5819290000000  0.4531150000000  0.4270060000000 1.0
C      1  0.5832800000000  0.5458400000000  0.5721230000000 1.0
C      1  0.4543500000000  0.4280990000000  0.5835760000000 1.0
C      1  0.5465310000000  0.5735550000000  0.5816280000000 1.0
C      1  0.5447350000000  0.4258680000000  0.4178910000000 1.0
C      1  0.4262200000000  0.4174030000000  0.4555830000000 1.0
C      1  0.5827080000000  0.4545780000000  0.5730400000000 1.0
C      1  0.5456500000000  0.5719010000000  0.4164240000000 1.0
C      1  0.4277420000000  0.5835200000000  0.5451860000000 1.0
C      1  0.5727450000000  0.4173940000000  0.5460770000000 1.0
C      1  0.5732940000000  0.5816830000000  0.4531540000000 1.0
C      1  0.5825010000000  0.5443780000000  0.4260890000000 1.0
C      1  0.4167200000000  0.4541600000000  0.4278770000000 1.0
C      1  0.4180710000000  0.5468850000000  0.5729940000000 1.0
C      1  0.5456160000000  0.4275220000000  0.5830950000000 1.0
C      1  0.4552650000000  0.5741320000000  0.5821090000000 1.0
C      1  0.4534690000000  0.4264450000000  0.4183720000000 1.0
C      1  0.4140900000000  0.4381920000000  0.5546370000000 1.0
C      1  0.4369890000000  0.5530910000000  0.4139940000000 1.0
C      1  0.5526820000000  0.4132330000000  0.4376920000000 1.0
C      1  0.4143070000000  0.5628930000000  0.4462670000000 1.0
C      1  0.5851220000000  0.4360340000000  0.4466260000000 1.0
C      1  0.5864810000000  0.5628810000000  0.5524690000000 1.0
C      1  0.4372330000000  0.4477040000000  0.5866680000000 1.0
C      1  0.5636830000000  0.5540150000000  0.5849290000000 1.0
C      1  0.5620960000000  0.4451900000000  0.4144080000000 1.0
C      1  0.5544280000000  0.5860900000000  0.5617430000000 1.0
C      1  0.4462420000000  0.4151700000000  0.5640320000000 1.0
C      1  0.4466470000000  0.5855070000000  0.4365330000000 1.0
C      1  0.5856930000000  0.4371070000000  0.5537330000000 1.0
C      1  0.5627670000000  0.5522960000000  0.4133320000000 1.0
C      1  0.4455720000000  0.4139100000000  0.4382570000000 1.0
C      1  0.5859100000000  0.5618080000000  0.4453630000000 1.0
C      1  0.4135190000000  0.4371190000000  0.4475310000000 1.0
C      1  0.4148780000000  0.5639660000000  0.5533740000000 1.0
C      1  0.5630110000000  0.4469090000000  0.5860060000000 1.0
C      1  0.4379040000000  0.5548100000000  0.5855920000000 1.0
C      1  0.4363180000000  0.4459850000000  0.4150710000000 1.0
C      1  0.4473180000000  0.5867670000000  0.5623080000000 1.0
C      1  0.5533530000000  0.4144930000000  0.5634670000000 1.0
C      1  0.5537570000000  0.5848300000000  0.4359680000000 1.0
C      1  0.5937830000000  0.5627600000000  0.4787210000000 1.0
C      1  0.5639280000000  0.4803860000000  0.5933570000000 1.0
C      1  0.4807760000000  0.5942530000000  0.5627200000000 1.0
C      1  0.5932020000000  0.4360580000000  0.5202940000000 1.0
C      1  0.4070130000000  0.5643460000000  0.5200020000000 1.0
C      1  0.4060020000000  0.4368360000000  0.4809830000000 1.0
C      1  0.5631830000000  0.5188100000000  0.4059730000000 1.0
C      1  0.4358200000000  0.4793170000000  0.4070480000000 1.0
C      1  0.4370700000000  0.5214860000000  0.5936220000000 1.0
C      1  0.4789260000000  0.4060020000000  0.4374920000000 1.0
C      1  0.5203960000000  0.5927250000000  0.4354010000000 1.0
C      1  0.5199020000000  0.4070200000000  0.5643870000000 1.0
C      1  0.4067980000000  0.5639420000000  0.4797060000000 1.0
C      1  0.4368170000000  0.4811900000000  0.5940270000000 1.0
C      1  0.5210740000000  0.5939980000000  0.5625080000000 1.0
C      1  0.4062170000000  0.4372400000000  0.5212800000000 1.0
C      1  0.5939980000000  0.5631640000000  0.5190170000000 1.0
C      1  0.5929870000000  0.4356540000000  0.4799980000000 1.0
C      1  0.4360720000000  0.5196140000000  0.4066430000000 1.0
C      1  0.5629300000000  0.4785140000000  0.4063780000000 1.0
C      1  0.5641800000000  0.5206830000000  0.5929520000000 1.0
C      1  0.5192240000000  0.4057470000000  0.4372800000000 1.0
C      1  0.4800980000000  0.5929800000000  0.4356130000000 1.0
C      1  0.4796040000000  0.4072750000000  0.5645990000000 1.0
C      1  0.5975680000000  0.4819820000000  0.5522840000000 1.0
C      1  0.4829190000000  0.5537060000000  0.5969630000000 1.0
C      1  0.5531340000000  0.5968840000000  0.4808150000000 1.0
C      1  0.5972320000000  0.5167870000000  0.4466890000000 1.0
C      1  0.4022070000000  0.4821590000000  0.4480760000000 1.0
C      1  0.4029930000000  0.5190720000000  0.5529500000000 1.0
C      1  0.4812210000000  0.4465210000000  0.4032260000000 1.0
C      1  0.5177400000000  0.5515280000000  0.4019800000000 1.0
C      1  0.5181200000000  0.4482450000000  0.5978310000000 1.0
C      1  0.5521040000000  0.4024500000000  0.5186310000000 1.0
C      1  0.4480870000000  0.5979090000000  0.5172280000000 1.0
C      1  0.4466750000000  0.4027570000000  0.4833260000000 1.0
C      1  0.4027680000000  0.4832130000000  0.5533110000000 1.0
C      1  0.5187790000000  0.5534790000000  0.5967740000000 1.0
C      1  0.4478960000000  0.5975500000000  0.4813690000000 1.0
C      1  0.4024320000000  0.5180180000000  0.4477160000000 1.0
C      1  0.5970070000000  0.4809280000000  0.4470500000000 1.0
C      1  0.5977930000000  0.5178410000000  0.5519240000000 1.0
C      1  0.5170810000000  0.4462940000000  0.4030370000000 1.0
C      1  0.4818800000000  0.5517550000000  0.4021690000000 1.0
C      1  0.4822600000000  0.4484720000000  0.5980200000000 1.0
C      1  0.4468660000000  0.4031160000000  0.5191850000000 1.0
C      1  0.5533250000000  0.5972430000000  0.5166740000000 1.0
C      1  0.5519130000000  0.4020910000000  0.4827720000000 1.0
C      1  0.6116450000000  0.5139430000000  0.5117720000000 1.0
C      1  0.5151960000000  0.5135300000000  0.6112820000000 1.0
C      1  0.5132820000000  0.6115500000000  0.5133360000000 1.0
C      1  0.6113300000000  0.4846480000000  0.4870530000000 1.0
C      1  0.3885370000000  0.5151010000000  0.4879360000000 1.0
C      1  0.3884880000000  0.4863080000000  0.5132390000000 1.0
C      1  0.5138500000000  0.4862860000000  0.3885650000000 1.0
C      1  0.4849610000000  0.5114810000000  0.3884670000000 1.0
C      1  0.4859940000000  0.4887030000000  0.6116860000000 1.0
C      1  0.5117300000000  0.3882920000000  0.4865320000000 1.0
C      1  0.4881150000000  0.6114170000000  0.4844240000000 1.0
C      1  0.4868730000000  0.3887410000000  0.5157080000000 1.0
C      1  0.3886700000000  0.5153520000000  0.5129470000000 1.0
C      1  0.4861500000000  0.5137140000000  0.6114350000000 1.0
C      1  0.4882700000000  0.6117080000000  0.5134680000000 1.0
C      1  0.3883550000000  0.4860570000000  0.4882280000000 1.0
C      1  0.6115120000000  0.5136920000000  0.4867610000000 1.0
C      1  0.6114630000000  0.4848980000000  0.5120640000000 1.0
C      1  0.4848050000000  0.4864700000000  0.3887180000000 1.0
C      1  0.5140060000000  0.5112970000000  0.3883140000000 1.0
C      1  0.5150390000000  0.4885190000000  0.6115330000000 1.0
C      1  0.4867180000000  0.3884500000000  0.4866640000000 1.0
C      1  0.5131270000000  0.6112590000000  0.4842920000000 1.0
C      1  0.5118850000000  0.3885830000000  0.5155760000000 1.0
C      1  0.5398510000000  0.5219300000000  0.6033960000000 1.0
C      1  0.5219980000000  0.6040730000000  0.5380090000000 1.0
C      1  0.6041770000000  0.5387190000000  0.5201980000000 1.0
C      1  0.5384790000000  0.4775750000000  0.3961910000000 1.0
C      1  0.4604140000000  0.5203460000000  0.3961790000000 1.0
C      1  0.4612560000000  0.4801490000000  0.6042340000000 1.0
C      1  0.5202790000000  0.3956600000000  0.4617680000000 1.0
C      1  0.4793030000000  0.6035560000000  0.4599050000000 1.0
C      1  0.4784190000000  0.3967110000000  0.5403180000000 1.0
C      1  0.6034600000000  0.4599690000000  0.4787080000000 1.0
C      1  0.3963140000000  0.5396080000000  0.4790160000000 1.0
C      1  0.3960490000000  0.4617050000000  0.5220790000000 1.0
C      1  0.4615210000000  0.5224250000000  0.6038090000000 1.0
C      1  0.4797210000000  0.6043400000000  0.5382320000000 1.0
C      1  0.3965400000000  0.5400310000000  0.5212920000000 1.0
C      1  0.4601490000000  0.4780700000000  0.3966040000000 1.0
C      1  0.5387440000000  0.5198510000000  0.3957660000000 1.0
C      1  0.5395860000000  0.4796540000000  0.6038210000000 1.0
C      1  0.4780020000000  0.3959270000000  0.4619910000000 1.0
C      1  0.5215810000000  0.6032890000000  0.4596820000000 1.0
C      1  0.5206970000000  0.3964440000000  0.5400950000000 1.0
C      1  0.3958230000000  0.4612810000000  0.4798020000000 1.0
C      1  0.6039510000000  0.5382950000000  0.4779210000000 1.0
C      1  0.6036860000000  0.4603920000000  0.5209850000000 1.0
C      1  0.5839120000000  0.5145790000000  0.5677350000000 1.0
C      1  0.5152960000000  0.5690640000000  0.5826920000000 1.0
C      1  0.5689220000000  0.5831670000000  0.5132240000000 1.0
C      1  0.5830030000000  0.4843660000000  0.4313860000000 1.0
C      1  0.4162690000000  0.5142660000000  0.4319750000000 1.0
C      1  0.4168170000000  0.4867890000000  0.5689040000000 1.0
C      1  0.5135500000000  0.4307540000000  0.4171560000000 1.0
C      1  0.4855600000000  0.5675750000000  0.4159350000000 1.0
C      1  0.4855940000000  0.4326080000000  0.5842170000000 1.0
C      1  0.5677220000000  0.4159700000000  0.4860560000000 1.0
C      1  0.4321250000000  0.5837420000000  0.4850990000000 1.0
C      1  0.4312320000000  0.4171220000000  0.5156210000000 1.0
C      1  0.4169980000000  0.5156340000000  0.5686140000000 1.0
C      1  0.4864500000000  0.5692460000000  0.5828440000000 1.0
C      1  0.4322780000000  0.5840310000000  0.5139440000000 1.0
C      1  0.4160880000000  0.4854210000000  0.4322650000000 1.0
C      1  0.5831830000000  0.5132110000000  0.4310960000000 1.0
C      1  0.5837310000000  0.4857340000000  0.5680250000000 1.0
C      1  0.4847040000000  0.4309360000000  0.4173080000000 1.0
C      1  0.5144060000000  0.5673920000000  0.4157830000000 1.0
C      1  0.5144400000000  0.4324250000000  0.5840650000000 1.0
C      1  0.4310780000000  0.4168330000000  0.4867760000000 1.0
C      1  0.5687680000000  0.5828780000000  0.4843790000000 1.0
C      1  0.5678750000000  0.4162580000000  0.5149010000000 1.0
C      1  0.4359990000000  0.4051680000000  0.4938960000000 1.0
C      1  0.4044540000000  0.4925730000000  0.4372130000000 1.0
C      1  0.4917010000000  0.4357310000000  0.4055170000000 1.0
C      1  0.4372710000000  0.5956330000000  0.5067720000000 1.0
C      1  0.5628080000000  0.4045150000000  0.5080160000000 1.0
C      1  0.5639220000000  0.5946840000000  0.4913160000000 1.0
C      1  0.4052220000000  0.5086300000000  0.5637900000000 1.0
C      1  0.5954530000000  0.4926390000000  0.5629360000000 1.0
C      1  0.5948700000000  0.5061580000000  0.4360610000000 1.0
C      1  0.4935100000000  0.5643620000000  0.5945610000000 1.0
C      1  0.5075050000000  0.4375430000000  0.5957570000000 1.0
C      1  0.5072840000000  0.5623630000000  0.4041650000000 1.0
C      1  0.5627290000000  0.4043670000000  0.4932280000000 1.0
C      1  0.5947780000000  0.4913700000000  0.4362100000000 1.0
C      1  0.5064900000000  0.4356380000000  0.4054390000000 1.0
C      1  0.5640010000000  0.5948320000000  0.5061040000000 1.0
C      1  0.4360780000000  0.4053160000000  0.5086840000000 1.0
C      1  0.4371920000000  0.5954850000000  0.4919840000000 1.0
C      1  0.5955460000000  0.5074270000000  0.5627870000000 1.0
C      1  0.4051300000000  0.4938420000000  0.5639390000000 1.0
C      1  0.4045470000000  0.5073610000000  0.4370640000000 1.0
C      1  0.5082990000000  0.5642690000000  0.5944830000000 1.0
C      1  0.4927160000000  0.4376370000000  0.5958350000000 1.0
C      1  0.4924950000000  0.5624570000000  0.4042430000000 1.0
C      1  0.4935800000000  0.4072150000000  0.5681680000000 1.0
C      1  0.4068880000000  0.5677240000000  0.4936260000000 1.0
C      1  0.5666600000000  0.4924470000000  0.4062110000000 1.0
C      1  0.4940360000000  0.5928630000000  0.4318970000000 1.0
C      1  0.5052470000000  0.4057910000000  0.4337110000000 1.0
C      1  0.5071360000000  0.5941310000000  0.5662240000000 1.0
C      1  0.4061110000000  0.4334580000000  0.5073590000000 1.0
C      1  0.5939550000000  0.5666660000000  0.5050240000000 1.0
C      1  0.5930460000000  0.4321520000000  0.4939910000000 1.0
C      1  0.5677350000000  0.5067030000000  0.5930810000000 1.0
C      1  0.4332620000000  0.4951700000000  0.5939140000000 1.0
C      1  0.4323420000000  0.5056800000000  0.4067940000000 1.0
C      1  0.5059640000000  0.4071370000000  0.5681030000000 1.0
C      1  0.5938880000000  0.5665420000000  0.4926410000000 1.0
C      1  0.4322650000000  0.4932970000000  0.4069190000000 1.0
C      1  0.5064190000000  0.5927850000000  0.4318320000000 1.0
C      1  0.4928640000000  0.4058690000000  0.4337760000000 1.0
C      1  0.4947530000000  0.5942090000000  0.5662890000000 1.0
C      1  0.5931120000000  0.4322760000000  0.5063740000000 1.0
C      1  0.4069540000000  0.5678480000000  0.5060090000000 1.0
C      1  0.4060450000000  0.4333340000000  0.4949760000000 1.0
C      1  0.4333400000000  0.5075530000000  0.5937890000000 1.0
C      1  0.5676580000000  0.4943200000000  0.5932060000000 1.0
C      1  0.5667380000000  0.5048310000000  0.4060860000000 1.0
C      1  0.5638700000000  0.5837940000000  0.4430390000000 1.0
C      1  0.5847470000000  0.4443280000000  0.5637480000000 1.0
C      1  0.4450750000000  0.5648350000000  0.5844090000000 1.0
C      1  0.5634020000000  0.4154020000000  0.5562900000000 1.0
C      1  0.4371920000000  0.5857150000000  0.5552580000000 1.0
C      1  0.4355350000000  0.4150890000000  0.4454130000000 1.0
C      1  0.5847680000000  0.5546010000000  0.4353590000000 1.0
C      1  0.4145540000000  0.4441250000000  0.4373730000000 1.0
C      1  0.4159310000000  0.5569470000000  0.5635210000000 1.0
C      1  0.4433730000000  0.4358700000000  0.4161780000000 1.0
C      1  0.5557230000000  0.5624330000000  0.4143120000000 1.0
C      1  0.5558290000000  0.4368620000000  0.5851000000000 1.0
C      1  0.4365970000000  0.5845980000000  0.4437100000000 1.0
C      1  0.4152320000000  0.4453990000000  0.5646410000000 1.0
C      1  0.5566270000000  0.5641300000000  0.5838220000000 1.0
C      1  0.4361300000000  0.4162060000000  0.5569610000000 1.0
C      1  0.5644650000000  0.5849110000000  0.5545870000000 1.0
C      1  0.5628080000000  0.4142850000000  0.4447420000000 1.0
C      1  0.4152530000000  0.5556720000000  0.4362520000000 1.0
C      1  0.5840690000000  0.4430530000000  0.4364790000000 1.0
C      1  0.5854460000000  0.5558750000000  0.5626270000000 1.0
C      1  0.5549250000000  0.4351650000000  0.4155910000000 1.0
C      1  0.4441710000000  0.5631380000000  0.4149000000000 1.0
C      1  0.4442770000000  0.4375670000000  0.5856880000000 1.0
C      1  0.5882910000000  0.5259060000000  0.5580260000000 1.0
C      1  0.5267110000000  0.5594640000000  0.5870860000000 1.0
C      1  0.5594390000000  0.5877000000000  0.5246820000000 1.0
C      1  0.5873400000000  0.4729830000000  0.4410490000000 1.0
C      1  0.4120330000000  0.5258400000000  0.4414540000000 1.0
C      1  0.4123360000000  0.4752700000000  0.5594710000000 1.0
C      1  0.5250380000000  0.4402090000000  0.4126410000000 1.0
C      1  0.4740260000000  0.5580320000000  0.4117330000000 1.0
C      1  0.4742260000000  0.4422950000000  0.5885390000000 1.0
C      1  0.5580620000000  0.4115570000000  0.4746990000000 1.0
C      1  0.4416620000000  0.5879250000000  0.4735540000000 1.0
C      1  0.4408370000000  0.4128180000000  0.5270650000000 1.0
C      1  0.4126600000000  0.5270170000000  0.5589510000000 1.0
C      1  0.4749620000000  0.5597910000000  0.5873590000000 1.0
C      1  0.4419380000000  0.5884430000000  0.5253010000000 1.0
C      1  0.4117090000000  0.4740940000000  0.4419740000000 1.0
C      1  0.5876640000000  0.5247300000000  0.4405290000000 1.0
C      1  0.5879670000000  0.4741600000000  0.5585460000000 1.0
C      1  0.4732890000000  0.4405360000000  0.4129140000000 1.0
C      1  0.5257740000000  0.5577050000000  0.4114610000000 1.0
C      1  0.5259740000000  0.4419680000000  0.5882670000000 1.0
C      1  0.4405610000000  0.4123000000000  0.4753180000000 1.0
C      1  0.5591630000000  0.5871820000000  0.4729350000000 1.0
C      1  0.5583380000000  0.4120750000000  0.5264460000000 1.0
C      1  0.4287210000000  0.5445800000000  0.5829320000000 1.0
C      1  0.5434320000000  0.5819930000000  0.4269480000000 1.0
C      1  0.5827700000000  0.4279190000000  0.5435800000000 1.0
C      1  0.4272930000000  0.4563300000000  0.4178270000000 1.0
C      1  0.5718220000000  0.5420080000000  0.4161980000000 1.0
C      1  0.5721640000000  0.4570820000000  0.5830430000000 1.0
C      1  0.5431590000000  0.4174600000000  0.5725960000000 1.0
C      1  0.4576090000000  0.5839820000000  0.5713850000000 1.0
C      1  0.4558010000000  0.4165660000000  0.4290710000000 1.0
C      1  0.5832110000000  0.5710320000000  0.4555450000000 1.0
C      1  0.4163280000000  0.4281010000000  0.4578670000000 1.0
C      1  0.4176920000000  0.5729480000000  0.5430080000000 1.0
C      1  0.5727070000000  0.5436700000000  0.5821730000000 1.0
C      1  0.4568410000000  0.5825400000000  0.4274040000000 1.0
C      1  0.4167890000000  0.4289680000000  0.5444550000000 1.0
C      1  0.5712790000000  0.4554200000000  0.4170680000000 1.0
C      1  0.4278360000000  0.5429180000000  0.4169570000000 1.0
C      1  0.4281780000000  0.4579920000000  0.5838020000000 1.0
C      1  0.4565680000000  0.4180070000000  0.5730530000000 1.0
C      1  0.5441990000000  0.5834340000000  0.5709290000000 1.0
C      1  0.5423910000000  0.4160180000000  0.4286150000000 1.0
C      1  0.4172300000000  0.5720810000000  0.4564200000000 1.0
C      1  0.5823080000000  0.4270520000000  0.4569920000000 1.0
C      1  0.5836720000000  0.5718990000000  0.5421330000000 1.0
C      1  0.4137280000000  0.5725220000000  0.4706930000000 1.0
C      1  0.5716250000000  0.4696400000000  0.4133430000000 1.0
C      1  0.4708050000000  0.4143400000000  0.5732890000000 1.0
C      1  0.4131310000000  0.4285720000000  0.5302190000000 1.0
C      1  0.5871780000000  0.5720090000000  0.5278540000000 1.0
C      1  0.5859630000000  0.4268960000000  0.4712330000000 1.0
C      1  0.5729120000000  0.5294470000000  0.5858950000000 1.0
C      1  0.4280110000000  0.4722870000000  0.5872400000000 1.0
C      1  0.4274520000000  0.5286260000000  0.4135210000000 1.0
C      1  0.4711200000000  0.5860270000000  0.4270170000000 1.0
C      1  0.5281100000000  0.4125250000000  0.4284510000000 1.0
C      1  0.5299660000000  0.5871070000000  0.5712430000000 1.0
C      1  0.5868690000000  0.5714280000000  0.4697810000000 1.0
C      1  0.4270880000000  0.4705530000000  0.4141050000000 1.0
C      1  0.5288800000000  0.4139730000000  0.5729830000000 1.0
C      1  0.5862720000000  0.4274780000000  0.5293070000000 1.0
C      1  0.4140370000000  0.5731040000000  0.5287670000000 1.0
C      1  0.4128220000000  0.4279910000000  0.4721460000000 1.0
C      1  0.4283750000000  0.5303600000000  0.5866570000000 1.0
C      1  0.5725480000000  0.4713740000000  0.5864790000000 1.0
C      1  0.5719890000000  0.5277130000000  0.4127600000000 1.0
C      1  0.5291950000000  0.5856600000000  0.4267110000000 1.0
C      1  0.4700340000000  0.4128930000000  0.4287570000000 1.0
C      1  0.4718900000000  0.5874740000000  0.5715490000000 1.0
C      1  0.6172620000000  0.4927130000000  0.5548890000000 1.0
C      1  0.4938690000000  0.5566500000000  0.6164880000000 1.0
C      1  0.5561310000000  0.6165850000000  0.4914300000000 1.0
C      1  0.6167600000000  0.5058070000000  0.4438780000000 1.0
C      1  0.3826490000000  0.4930820000000  0.4452540000000 1.0
C      1  0.3833300000000  0.5083970000000  0.5559790000000 1.0
C      1  0.4919260000000  0.4434400000000  0.3835870000000 1.0
C      1  0.5068260000000  0.5542170000000  0.3823990000000 1.0
C      1  0.5073790000000  0.4456930000000  0.6175270000000 1.0
C      1  0.5547400000000  0.3827140000000  0.5079860000000 1.0
C      1  0.4453360000000  0.6174280000000  0.5062190000000 1.0
C      1  0.4437930000000  0.3832730000000  0.4943660000000 1.0
C      1  0.3832400000000  0.4941930000000  0.5561220000000 1.0
C      1  0.5080740000000  0.5565600000000  0.6164130000000 1.0
C      1  0.4452600000000  0.6172860000000  0.4920140000000 1.0
C      1  0.3827380000000  0.5072870000000  0.4451110000000 1.0
C      1  0.6166710000000  0.4916030000000  0.4440210000000 1.0
C      1  0.6173510000000  0.5069180000000  0.5547460000000 1.0
C      1  0.5061310000000  0.4433500000000  0.3835120000000 1.0
C      1  0.4926210000000  0.5543070000000  0.3824730000000 1.0
C      1  0.4931740000000  0.4457830000000  0.6176010000000 1.0
C      1  0.4438690000000  0.3834150000000  0.5085700000000 1.0
C      1  0.5562070000000  0.6167270000000  0.5056350000000 1.0
C      1  0.5546640000000  0.3825720000000  0.4937810000000 1.0
C      1  0.5835430000000  0.4770250000000  0.5790430000000 1.0
C      1  0.4776980000000  0.5802290000000  0.5825900000000 1.0
C      1  0.5796490000000  0.5825300000000  0.4755040000000 1.0
C      1  0.5829900000000  0.5219220000000  0.4200790000000 1.0
C      1  0.4161650000000  0.4764910000000  0.4214240000000 1.0
C      1  0.4173020000000  0.5245620000000  0.5794540000000 1.0
C      1  0.4758170000000  0.4200650000000  0.4176550000000 1.0
C      1  0.5232950000000  0.5782670000000  0.4158170000000 1.0
C      1  0.5231900000000  0.4214390000000  0.5839380000000 1.0
C      1  0.5788530000000  0.4164680000000  0.5236610000000 1.0
C      1  0.4213950000000  0.5839970000000  0.5228230000000 1.0
C      1  0.4201030000000  0.4170050000000  0.4780120000000 1.0
C      1  0.4170100000000  0.4780780000000  0.5799210000000 1.0
C      1  0.5241840000000  0.5799350000000  0.5823450000000 1.0
C      1  0.4211470000000  0.5835320000000  0.4763390000000 1.0
C      1  0.4164560000000  0.5229750000000  0.4209570000000 1.0
C      1  0.5826980000000  0.4754380000000  0.4205460000000 1.0
C      1  0.5838350000000  0.5235090000000  0.5785760000000 1.0
C      1  0.5223020000000  0.4197710000000  0.4174100000000 1.0
C      1  0.4768100000000  0.5785610000000  0.4160620000000 1.0
C      1  0.4767050000000  0.4217330000000  0.5841830000000 1.0
C      1  0.4203510000000  0.4174700000000  0.5244960000000 1.0
C      1  0.5798970000000  0.5829950000000  0.5219880000000 1.0
C      1  0.5786050000000  0.4160030000000  0.4771770000000 1.0
C      1  0.5007390000000  0.6111090000000  0.5069710000000 1.0
C      1  0.6110830000000  0.5073840000000  0.4993340000000 1.0
C      1  0.5086780000000  0.5010610000000  0.6109870000000 1.0
C      1  0.4992610000000  0.3888910000000  0.4930290000000 1.0
C      1  0.5006530000000  0.6109470000000  0.4907980000000 1.0
C      1  0.4993470000000  0.3890530000000  0.5092020000000 1.0
C      1  0.6109820000000  0.4912120000000  0.4994960000000 1.0
C      1  0.3890180000000  0.5087880000000  0.5005040000000 1.0
C      1  0.3889170000000  0.4926160000000  0.5006660000000 1.0
C      1  0.5074940000000  0.4988370000000  0.3889280000000 1.0
C      1  0.4913220000000  0.4989390000000  0.3890130000000 1.0
C      1  0.4925060000000  0.5011630000000  0.6110720000000 1.0
END
