TITL C-66629-8849-9 -2.80056385006161 1000000 -3942.31231008587 0 0 540 (C1) n - 1
REM
REM in /home/chem/mssmkc/work/GAP20/Larger-Clusters/Only-C240/New/BUILD-ONLY/Try2-C540
REM
REM
REM
REM
REM
REM ./C.cell (4d22446d3c8a03e2533cb19ef5564aa4)
REM
REM compiler GCC version 8.3.0
REM options -cpp -mtune=generic -march=x86-64 -g -O0
REM seed -1746761565 1927286391 954892796 -980466550 -462998035 152528027 -868238295 1354800994 373266593 -777712908 -673301518 1960296353 580739556 481353800 -241956571 2064617793 274180037 -1755742267 1076144314 -1114700001 -867953410 -311692660 -1732025877 835951860 -1146022999 611691844 61865379 -1317841835 -932633535 -294049319 966300956 -1693487010 -578176825
REM
CELL 1.54180  100.00000  100.00000  100.00000   90.00000   90.00000   90.00000
LATT -1
SFAC C  
C      1  0.4554150000000  0.5939760000000  0.4851020000000 1.0
C      1  0.4927720000000  0.4656990000000  0.5948150000000 1.0
C      1  0.5921710000000  0.4914480000000  0.4689700000000 1.0
C      1  0.4553210000000  0.4058770000000  0.5149740000000 1.0
C      1  0.5365450000000  0.4103030000000  0.4897180000000 1.0
C      1  0.5366410000000  0.5898840000000  0.5102370000000 1.0
C      1  0.4921850000000  0.5342200000000  0.4040350000000 1.0
C      1  0.5143520000000  0.5415020000000  0.5931260000000 1.0
C      1  0.5139940000000  0.4584210000000  0.4062750000000 1.0
C      1  0.5921080000000  0.5086890000000  0.5309430000000 1.0
C      1  0.4116040000000  0.5099280000000  0.4609370000000 1.0
C      1  0.4113880000000  0.4898090000000  0.5395290000000 1.0
C      1  0.4641190000000  0.4897090000000  0.5892870000000 1.0
C      1  0.4858920000000  0.5939470000000  0.4592710000000 1.0
C      1  0.5886690000000  0.4608260000000  0.4898930000000 1.0
C      1  0.4638300000000  0.5101390000000  0.4105250000000 1.0
C      1  0.5436320000000  0.4858380000000  0.4059160000000 1.0
C      1  0.5429690000000  0.5143200000000  0.5935400000000 1.0
C      1  0.4857970000000  0.4058550000000  0.5408010000000 1.0
C      1  0.5082500000000  0.5960640000000  0.5339770000000 1.0
C      1  0.5081390000000  0.4040800000000  0.4660310000000 1.0
C      1  0.5887760000000  0.5393910000000  0.5100440000000 1.0
C      1  0.4076890000000  0.4688400000000  0.5089040000000 1.0
C      1  0.4079210000000  0.5309010000000  0.4914300000000 1.0
C      1  0.4936620000000  0.4097040000000  0.5522250000000 1.0
C      1  0.5558370000000  0.4924570000000  0.4096560000000 1.0
C      1  0.4080110000000  0.5446900000000  0.4966370000000 1.0
C      1  0.4937290000000  0.5900690000000  0.4478340000000 1.0
C      1  0.5023460000000  0.5935540000000  0.5470630000000 1.0
C      1  0.5022050000000  0.4065620000000  0.4529550000000 1.0
C      1  0.5552240000000  0.5075920000000  0.5899220000000 1.0
C      1  0.4508130000000  0.5053150000000  0.4108040000000 1.0
C      1  0.4511560000000  0.4946850000000  0.5891890000000 1.0
C      1  0.4078080000000  0.4550650000000  0.5036550000000 1.0
C      1  0.5883530000000  0.4474010000000  0.4937910000000 1.0
C      1  0.5884710000000  0.5528140000000  0.5061460000000 1.0
C      1  0.4979440000000  0.5473950000000  0.4066860000000 1.0
C      1  0.5496470000000  0.4105470000000  0.4943630000000 1.0
C      1  0.4118590000000  0.4937970000000  0.5529190000000 1.0
C      1  0.4980170000000  0.4523470000000  0.5928680000000 1.0
C      1  0.5065970000000  0.5530320000000  0.5897890000000 1.0
C      1  0.5063250000000  0.4469530000000  0.4099810000000 1.0
C      1  0.5497380000000  0.5896390000000  0.5055750000000 1.0
C      1  0.4434680000000  0.4094500000000  0.5080720000000 1.0
C      1  0.4435820000000  0.5903910000000  0.4920360000000 1.0
C      1  0.4119320000000  0.5060300000000  0.4475070000000 1.0
C      1  0.5919690000000  0.4967020000000  0.4552010000000 1.0
C      1  0.5918310000000  0.5034390000000  0.5447130000000 1.0
C      1  0.5076340000000  0.4988730000000  0.6086900000000 1.0
C      1  0.5982920000000  0.5010410000000  0.5066750000000 1.0
C      1  0.5029090000000  0.6048650000000  0.5247110000000 1.0
C      1  0.5037440000000  0.5016940000000  0.3873640000000 1.0
C      1  0.5028290000000  0.4867490000000  0.6058950000000 1.0
C      1  0.4999720000000  0.5140780000000  0.3895970000000 1.0
C      1  0.5983040000000  0.4990040000000  0.4932780000000 1.0
C      1  0.4032930000000  0.4810780000000  0.5031410000000 1.0
C      1  0.4033740000000  0.5186490000000  0.4970500000000 1.0
C      1  0.5028330000000  0.3952640000000  0.4753020000000 1.0
C      1  0.4864940000000  0.3869690000000  0.5069330000000 1.0
C      1  0.4865220000000  0.6129960000000  0.4930660000000 1.0
C      1  0.4977660000000  0.6104200000000  0.5151170000000 1.0
C      1  0.5967380000000  0.5030060000000  0.5187590000000 1.0
C      1  0.5005190000000  0.5096090000000  0.6082450000000 1.0
C      1  0.4977090000000  0.3896720000000  0.4848840000000 1.0
C      1  0.4912640000000  0.6150690000000  0.5045510000000 1.0
C      1  0.4912140000000  0.3849580000000  0.4954280000000 1.0
C      1  0.5967810000000  0.4970860000000  0.4811830000000 1.0
C      1  0.4018870000000  0.5065450000000  0.4989520000000 1.0
C      1  0.4018560000000  0.4931570000000  0.5010650000000 1.0
C      1  0.5075780000000  0.4899070000000  0.3889160000000 1.0
C      1  0.4971770000000  0.5247040000000  0.3951550000000 1.0
C      1  0.4994370000000  0.4756550000000  0.6020500000000 1.0
C      1  0.5655750000000  0.5149620000000  0.5815240000000 1.0
C      1  0.5811320000000  0.5629620000000  0.5145220000000 1.0
C      1  0.5105870000000  0.5865680000000  0.5569700000000 1.0
C      1  0.5660560000000  0.4850890000000  0.4181800000000 1.0
C      1  0.4406350000000  0.4858800000000  0.5825750000000 1.0
C      1  0.4404030000000  0.5140710000000  0.4175390000000 1.0
C      1  0.5810120000000  0.4372580000000  0.4854080000000 1.0
C      1  0.4134230000000  0.4445970000000  0.5123490000000 1.0
C      1  0.4136460000000  0.5551310000000  0.4879160000000 1.0
C      1  0.5104140000000  0.4135590000000  0.4430240000000 1.0
C      1  0.4868360000000  0.4179010000000  0.5633710000000 1.0
C      1  0.4869480000000  0.5817580000000  0.4367640000000 1.0
C      1  0.5601450000000  0.5828870000000  0.5142990000000 1.0
C      1  0.5859480000000  0.5120490000000  0.5550660000000 1.0
C      1  0.5134600000000  0.5641110000000  0.5818360000000 1.0
C      1  0.5600350000000  0.4173260000000  0.4856320000000 1.0
C      1  0.4334000000000  0.5819360000000  0.4846950000000 1.0
C      1  0.4332670000000  0.4178550000000  0.5154470000000 1.0
C      1  0.5861570000000  0.4880660000000  0.4448130000000 1.0
C      1  0.4193320000000  0.5143630000000  0.4373740000000 1.0
C      1  0.4193000000000  0.4854680000000  0.5630150000000 1.0
C      1  0.5132060000000  0.4359470000000  0.4181000000000 1.0
C      1  0.4897240000000  0.5571300000000  0.4138890000000 1.0
C      1  0.4896500000000  0.4425100000000  0.5861010000000 1.0
C      1  0.4605710000000  0.4056320000000  0.5271870000000 1.0
C      1  0.5268190000000  0.4622170000000  0.4059690000000 1.0
C      1  0.4160870000000  0.5206380000000  0.4672420000000 1.0
C      1  0.4606640000000  0.5941840000000  0.4728870000000 1.0
C      1  0.5309490000000  0.5861970000000  0.5215300000000 1.0
C      1  0.5308370000000  0.4139990000000  0.4784350000000 1.0
C      1  0.5272080000000  0.5379860000000  0.5935560000000 1.0
C      1  0.4808420000000  0.5309890000000  0.4114990000000 1.0
C      1  0.4809510000000  0.4687500000000  0.5881340000000 1.0
C      1  0.4157000000000  0.4790430000000  0.5332180000000 1.0
C      1  0.5859370000000  0.4791240000000  0.4706050000000 1.0
C      1  0.5859240000000  0.5210370000000  0.5292790000000 1.0
C      1  0.4695480000000  0.5214880000000  0.4140350000000 1.0
C      1  0.5195100000000  0.4114670000000  0.4690630000000 1.0
C      1  0.4137910000000  0.4703920000000  0.5213010000000 1.0
C      1  0.4696530000000  0.4782840000000  0.5857650000000 1.0
C      1  0.5388150000000  0.5270270000000  0.5936520000000 1.0
C      1  0.5387810000000  0.4733550000000  0.4059020000000 1.0
C      1  0.5196300000000  0.5887040000000  0.5309200000000 1.0
C      1  0.4727090000000  0.4057190000000  0.5377220000000 1.0
C      1  0.4728060000000  0.5940580000000  0.4623570000000 1.0
C      1  0.4142130000000  0.5292930000000  0.4791450000000 1.0
C      1  0.5841690000000  0.4671620000000  0.4792130000000 1.0
C      1  0.5842440000000  0.5330330000000  0.5206940000000 1.0
C      1  0.5197400000000  0.5957110000000  0.4536200000000 1.0
C      1  0.4549040000000  0.5200340000000  0.5968080000000 1.0
C      1  0.5974580000000  0.4509700000000  0.5178940000000 1.0
C      1  0.5197170000000  0.4042260000000  0.5463360000000 1.0
C      1  0.4757710000000  0.4018550000000  0.4571750000000 1.0
C      1  0.4758980000000  0.5981800000000  0.5428940000000 1.0
C      1  0.4545210000000  0.4800030000000  0.4034770000000 1.0
C      1  0.5509900000000  0.4819910000000  0.5962900000000 1.0
C      1  0.5514730000000  0.5181710000000  0.4036510000000 1.0
C      1  0.5975770000000  0.5492200000000  0.4820410000000 1.0
C      1  0.4016990000000  0.5417350000000  0.5224490000000 1.0
C      1  0.4015300000000  0.4580960000000  0.4778330000000 1.0
C      1  0.5241760000000  0.4564500000000  0.5979430000000 1.0
C      1  0.4485110000000  0.5966000000000  0.5176940000000 1.0
C      1  0.5984890000000  0.5224500000000  0.4581290000000 1.0
C      1  0.5241880000000  0.5435240000000  0.4019470000000 1.0
C      1  0.4804310000000  0.4530610000000  0.4044840000000 1.0
C      1  0.4807040000000  0.5470310000000  0.5957120000000 1.0
C      1  0.4483940000000  0.4033090000000  0.4824010000000 1.0
C      1  0.5458830000000  0.5969170000000  0.4803690000000 1.0
C      1  0.5458380000000  0.4031780000000  0.5195540000000 1.0
C      1  0.5983420000000  0.4777050000000  0.5418260000000 1.0
C      1  0.4028030000000  0.5179120000000  0.5493010000000 1.0
C      1  0.4026540000000  0.4819970000000  0.4510600000000 1.0
C      1  0.4270210000000  0.5896670000000  0.5110710000000 1.0
C      1  0.5156150000000  0.4348160000000  0.5929720000000 1.0
C      1  0.5948400000000  0.5135250000000  0.4367580000000 1.0
C      1  0.4268890000000  0.4101660000000  0.4890590000000 1.0
C      1  0.5676410000000  0.4061870000000  0.5111970000000 1.0
C      1  0.5677050000000  0.5939760000000  0.4887050000000 1.0
C      1  0.5156000000000  0.5650350000000  0.4070140000000 1.0
C      1  0.4869350000000  0.5688570000000  0.5892250000000 1.0
C      1  0.4866660000000  0.4311740000000  0.4107800000000 1.0
C      1  0.5945960000000  0.4866250000000  0.5631810000000 1.0
C      1  0.4079990000000  0.4890760000000  0.4294000000000 1.0
C      1  0.4082100000000  0.5108770000000  0.5709610000000 1.0
C      1  0.4332010000000  0.5114810000000  0.5937020000000 1.0
C      1  0.5133150000000  0.5894300000000  0.4318040000000 1.0
C      1  0.5922570000000  0.4292980000000  0.5107690000000 1.0
C      1  0.4327830000000  0.4885290000000  0.4064380000000 1.0
C      1  0.5729000000000  0.5112790000000  0.4102510000000 1.0
C      1  0.5724100000000  0.4888310000000  0.5895200000000 1.0
C      1  0.5133200000000  0.4104330000000  0.5681720000000 1.0
C      1  0.4845790000000  0.5932730000000  0.5644980000000 1.0
C      1  0.4844040000000  0.4067830000000  0.4355540000000 1.0
C      1  0.5923560000000  0.5708950000000  0.4891500000000 1.0
C      1  0.4050140000000  0.4367020000000  0.4867430000000 1.0
C      1  0.4051870000000  0.5631050000000  0.5134810000000 1.0
C      1  0.5114520000000  0.5512500000000  0.4040430000000 1.0
C      1  0.4069440000000  0.5064230000000  0.5572650000000 1.0
C      1  0.5536180000000  0.4059680000000  0.5073160000000 1.0
C      1  0.5114440000000  0.4486110000000  0.5957990000000 1.0
C      1  0.4922950000000  0.4444680000000  0.4077950000000 1.0
C      1  0.4925630000000  0.5555420000000  0.5921880000000 1.0
C      1  0.4068730000000  0.4934730000000  0.4431240000000 1.0
C      1  0.5955670000000  0.4903090000000  0.5490370000000 1.0
C      1  0.5957300000000  0.5098430000000  0.4509080000000 1.0
C      1  0.5536860000000  0.5941860000000  0.4926050000000 1.0
C      1  0.4403550000000  0.5928380000000  0.5058490000000 1.0
C      1  0.4402360000000  0.4070240000000  0.4942600000000 1.0
C      1  0.5077320000000  0.4075380000000  0.5547830000000 1.0
C      1  0.4043160000000  0.5489540000000  0.5098070000000 1.0
C      1  0.5594290000000  0.5061820000000  0.4072450000000 1.0
C      1  0.5077610000000  0.5923150000000  0.4452100000000 1.0
C      1  0.4885950000000  0.4038830000000  0.4493570000000 1.0
C      1  0.4887370000000  0.5961880000000  0.5506900000000 1.0
C      1  0.4041470000000  0.4508400000000  0.4904600000000 1.0
C      1  0.5934660000000  0.5571700000000  0.4935480000000 1.0
C      1  0.5933520000000  0.4430280000000  0.5063830000000 1.0
C      1  0.5589060000000  0.4938780000000  0.5924540000000 1.0
C      1  0.4472500000000  0.5076870000000  0.5938280000000 1.0
C      1  0.4468440000000  0.4923260000000  0.4062730000000 1.0
C      1  0.4008600000000  0.4716170000000  0.4742000000000 1.0
C      1  0.4711120000000  0.4010590000000  0.4705230000000 1.0
C      1  0.4679270000000  0.4754010000000  0.4033200000000 1.0
C      1  0.4010030000000  0.5282050000000  0.5260910000000 1.0
C      1  0.5990120000000  0.5354820000000  0.4799260000000 1.0
C      1  0.5988980000000  0.4647110000000  0.5200020000000 1.0
C      1  0.4712230000000  0.5989390000000  0.5295530000000 1.0
C      1  0.5235010000000  0.5967220000000  0.4671840000000 1.0
C      1  0.5234690000000  0.4032590000000  0.5327670000000 1.0
C      1  0.4682980000000  0.5246410000000  0.5973230000000 1.0
C      1  0.5380770000000  0.5218190000000  0.4020530000000 1.0
C      1  0.5374100000000  0.4789360000000  0.5981960000000 1.0
C      1  0.4011600000000  0.4799040000000  0.4647980000000 1.0
C      1  0.4769840000000  0.4667240000000  0.4034200000000 1.0
C      1  0.4619150000000  0.4013720000000  0.4791190000000 1.0
C      1  0.4012890000000  0.5200030000000  0.5355650000000 1.0
C      1  0.5991200000000  0.4740970000000  0.5283060000000 1.0
C      1  0.5992310000000  0.5260700000000  0.4716520000000 1.0
C      1  0.4773040000000  0.5333850000000  0.5972090000000 1.0
C      1  0.5287660000000  0.4697270000000  0.5985890000000 1.0
C      1  0.5287440000000  0.5301490000000  0.4015300000000 1.0
C      1  0.4620280000000  0.5985850000000  0.5209580000000 1.0
C      1  0.5323520000000  0.4030690000000  0.5239330000000 1.0
C      1  0.5323900000000  0.5969700000000  0.4760100000000 1.0
C      1  0.5794960000000  0.5358430000000  0.4171900000000 1.0
C      1  0.4102930000000  0.5733170000000  0.5371430000000 1.0
C      1  0.5375950000000  0.4181860000000  0.5733210000000 1.0
C      1  0.5792510000000  0.4642970000000  0.5827420000000 1.0
C      1  0.4238990000000  0.4646840000000  0.4132370000000 1.0
C      1  0.4242310000000  0.5353170000000  0.5870040000000 1.0
C      1  0.4101050000000  0.4265550000000  0.4630520000000 1.0
C      1  0.5875590000000  0.4215000000000  0.5354040000000 1.0
C      1  0.5876290000000  0.5786560000000  0.4645130000000 1.0
C      1  0.5375980000000  0.5817550000000  0.4266390000000 1.0
C      1  0.4617500000000  0.5833930000000  0.5715900000000 1.0
C      1  0.4615510000000  0.4166670000000  0.4285360000000 1.0
C      1  0.5762940000000  0.4130410000000  0.5351010000000 1.0
C      1  0.4129130000000  0.5355460000000  0.5786250000000 1.0
C      1  0.5384800000000  0.5719530000000  0.4169020000000 1.0
C      1  0.5763380000000  0.5870790000000  0.4648090000000 1.0
C      1  0.4204830000000  0.4171290000000  0.4644990000000 1.0
C      1  0.4206530000000  0.5827540000000  0.5356590000000 1.0
C      1  0.4125930000000  0.4644270000000  0.4216400000000 1.0
C      1  0.5898870000000  0.5372510000000  0.4266050000000 1.0
C      1  0.5896560000000  0.4629070000000  0.5733340000000 1.0
C      1  0.5384810000000  0.4279580000000  0.5830860000000 1.0
C      1  0.4626490000000  0.5737660000000  0.5814930000000 1.0
C      1  0.4624170000000  0.4263220000000  0.4186540000000 1.0
C      1  0.4025730000000  0.5293220000000  0.5585000000000 1.0
C      1  0.5555400000000  0.4027810000000  0.5303150000000 1.0
C      1  0.5350110000000  0.5529470000000  0.4037260000000 1.0
C      1  0.4023210000000  0.4706090000000  0.4418190000000 1.0
C      1  0.5985400000000  0.4669760000000  0.5518940000000 1.0
C      1  0.5987240000000  0.5331830000000  0.4480600000000 1.0
C      1  0.5555650000000  0.5972990000000  0.4695940000000 1.0
C      1  0.4396850000000  0.5952690000000  0.5292630000000 1.0
C      1  0.4395500000000  0.4046370000000  0.4708460000000 1.0
C      1  0.5349710000000  0.4469770000000  0.5962480000000 1.0
C      1  0.4686790000000  0.4445910000000  0.4054310000000 1.0
C      1  0.4689670000000  0.5555150000000  0.5947220000000 1.0
C      1  0.4015200000000  0.5518160000000  0.5331720000000 1.0
C      1  0.5603770000000  0.5296240000000  0.4047690000000 1.0
C      1  0.5314050000000  0.4051090000000  0.5549240000000 1.0
C      1  0.4013190000000  0.4480370000000  0.4670860000000 1.0
C      1  0.5978760000000  0.5584530000000  0.4706500000000 1.0
C      1  0.5977610000000  0.4417290000000  0.5292830000000 1.0
C      1  0.5600760000000  0.4704860000000  0.5951560000000 1.0
C      1  0.4450600000000  0.5306950000000  0.5971970000000 1.0
C      1  0.4447170000000  0.4693330000000  0.4030410000000 1.0
C      1  0.5314110000000  0.5948630000000  0.4450110000000 1.0
C      1  0.4650100000000  0.4036670000000  0.4476770000000 1.0
C      1  0.4651570000000  0.5963570000000  0.5524130000000 1.0
C      1  0.5256440000000  0.4359760000000  0.4250990000000 1.0
C      1  0.4303560000000  0.5240810000000  0.4384500000000 1.0
C      1  0.4344260000000  0.4248190000000  0.5278290000000 1.0
C      1  0.5259380000000  0.5642670000000  0.5749060000000 1.0
C      1  0.4782460000000  0.5536180000000  0.4217760000000 1.0
C      1  0.4780790000000  0.4459610000000  0.5783660000000 1.0
C      1  0.4302560000000  0.4756870000000  0.5618720000000 1.0
C      1  0.5779590000000  0.4764120000000  0.4472600000000 1.0
C      1  0.5777890000000  0.5237010000000  0.5525770000000 1.0
C      1  0.4345770000000  0.5749310000000  0.4723380000000 1.0
C      1  0.5596330000000  0.5719420000000  0.5242420000000 1.0
C      1  0.5595010000000  0.4282840000000  0.4756990000000 1.0
C      1  0.5220150000000  0.4214200000000  0.4462940000000 1.0
C      1  0.4215730000000  0.4469630000000  0.5240750000000 1.0
C      1  0.4408880000000  0.5240500000000  0.4284570000000 1.0
C      1  0.5222010000000  0.5787460000000  0.5536830000000 1.0
C      1  0.4743800000000  0.4249270000000  0.5636840000000 1.0
C      1  0.4745420000000  0.5746770000000  0.4364910000000 1.0
C      1  0.4218600000000  0.5527370000000  0.4762400000000 1.0
C      1  0.5699800000000  0.4383210000000  0.4756860000000 1.0
C      1  0.5701070000000  0.5619030000000  0.5242480000000 1.0
C      1  0.4408960000000  0.4757640000000  0.5717350000000 1.0
C      1  0.5647870000000  0.5274010000000  0.5745890000000 1.0
C      1  0.5649610000000  0.4727440000000  0.4252280000000 1.0
C      1  0.5827960000000  0.5033680000000  0.4155310000000 1.0
C      1  0.4079870000000  0.5728790000000  0.5043170000000 1.0
C      1  0.5058880000000  0.4145870000000  0.5789490000000 1.0
C      1  0.5823350000000  0.4967320000000  0.5842940000000 1.0
C      1  0.4231360000000  0.4976550000000  0.4097950000000 1.0
C      1  0.4235140000000  0.5023590000000  0.5904410000000 1.0
C      1  0.4078240000000  0.4268970000000  0.4958720000000 1.0
C      1  0.5879630000000  0.4196910000000  0.5019960000000 1.0
C      1  0.5880550000000  0.5805110000000  0.4979080000000 1.0
C      1  0.5058580000000  0.5851940000000  0.4210750000000 1.0
C      1  0.4934420000000  0.5898290000000  0.5744040000000 1.0
C      1  0.4932380000000  0.4102260000000  0.4256230000000 1.0
C      1  0.5772890000000  0.4096250000000  0.5020960000000 1.0
C      1  0.4126600000000  0.5021850000000  0.5805740000000 1.0
C      1  0.5067040000000  0.5748130000000  0.4106920000000 1.0
C      1  0.5773730000000  0.5905690000000  0.4978000000000 1.0
C      1  0.4168920000000  0.4154150000000  0.4968940000000 1.0
C      1  0.4170310000000  0.5843750000000  0.5032560000000 1.0
C      1  0.4124010000000  0.4977970000000  0.4197970000000 1.0
C      1  0.5918840000000  0.5043760000000  0.4270070000000 1.0
C      1  0.5915470000000  0.4957560000000  0.5729220000000 1.0
C      1  0.5067460000000  0.4249830000000  0.5893170000000 1.0
C      1  0.4943320000000  0.5796090000000  0.5849410000000 1.0
C      1  0.4940870000000  0.4204260000000  0.4150540000000 1.0
C      1  0.4087270000000  0.4337170000000  0.4503970000000 1.0
C      1  0.4496060000000  0.4177380000000  0.4374350000000 1.0
C      1  0.4334290000000  0.4535640000000  0.4157700000000 1.0
C      1  0.4089390000000  0.5661860000000  0.5498180000000 1.0
C      1  0.5902000000000  0.5705980000000  0.4525760000000 1.0
C      1  0.5901160000000  0.4295530000000  0.5473500000000 1.0
C      1  0.4497920000000  0.5822850000000  0.5627110000000 1.0
C      1  0.5489490000000  0.5821340000000  0.4363300000000 1.0
C      1  0.5489300000000  0.4178580000000  0.5636150000000 1.0
C      1  0.4337240000000  0.5464680000000  0.5844920000000 1.0
C      1  0.5692250000000  0.5465680000000  0.4180060000000 1.0
C      1  0.5690870000000  0.4535000000000  0.5819720000000 1.0
C      1  0.4099500000000  0.4525010000000  0.4296930000000 1.0
C      1  0.4511290000000  0.4360830000000  0.4182490000000 1.0
C      1  0.4307760000000  0.4179020000000  0.4538190000000 1.0
C      1  0.4102270000000  0.5474550000000  0.5705610000000 1.0
C      1  0.5911560000000  0.4502520000000  0.5661730000000 1.0
C      1  0.5913150000000  0.5499020000000  0.4337720000000 1.0
C      1  0.4513610000000  0.5640090000000  0.5819610000000 1.0
C      1  0.5503900000000  0.4369420000000  0.5820670000000 1.0
C      1  0.5504340000000  0.5630260000000  0.4179100000000 1.0
C      1  0.4309540000000  0.5820320000000  0.5463350000000 1.0
C      1  0.5666950000000  0.4155290000000  0.5461720000000 1.0
C      1  0.5667300000000  0.5845440000000  0.4537520000000 1.0
C      1  0.4529990000000  0.5698140000000  0.4425030000000 1.0
C      1  0.4490880000000  0.4534040000000  0.5626880000000 1.0
C      1  0.5613500000000  0.4475270000000  0.4536800000000 1.0
C      1  0.4528150000000  0.4298120000000  0.5576960000000 1.0
C      1  0.5427600000000  0.4358330000000  0.4417390000000 1.0
C      1  0.5430130000000  0.5644460000000  0.5582700000000 1.0
C      1  0.4492980000000  0.5462280000000  0.4375710000000 1.0
C      1  0.5571800000000  0.5484450000000  0.5698900000000 1.0
C      1  0.5569080000000  0.4518920000000  0.4301260000000 1.0
C      1  0.5614750000000  0.5527060000000  0.5462590000000 1.0
C      1  0.4362740000000  0.5580290000000  0.4555470000000 1.0
C      1  0.4360470000000  0.4416410000000  0.5447150000000 1.0
C      1  0.4572090000000  0.4415160000000  0.5642190000000 1.0
C      1  0.4428750000000  0.5698640000000  0.4516120000000 1.0
C      1  0.5635980000000  0.4557320000000  0.4419300000000 1.0
C      1  0.4574170000000  0.5580890000000  0.4360240000000 1.0
C      1  0.5469790000000  0.4425790000000  0.4300850000000 1.0
C      1  0.5473040000000  0.5578120000000  0.5699740000000 1.0
C      1  0.4426970000000  0.4298040000000  0.5485820000000 1.0
C      1  0.5510960000000  0.5628050000000  0.5463780000000 1.0
C      1  0.5509160000000  0.4374540000000  0.4535920000000 1.0
C      1  0.5636680000000  0.5444980000000  0.5580040000000 1.0
C      1  0.4385120000000  0.4534680000000  0.5527740000000 1.0
C      1  0.4387560000000  0.5461890000000  0.4475270000000 1.0
C      1  0.5579120000000  0.5714590000000  0.4571610000000 1.0
C      1  0.4522110000000  0.5532480000000  0.5699980000000 1.0
C      1  0.5627810000000  0.4613780000000  0.5456960000000 1.0
C      1  0.5578360000000  0.4285900000000  0.5427910000000 1.0
C      1  0.4407280000000  0.4302490000000  0.4570920000000 1.0
C      1  0.4409320000000  0.5696920000000  0.5430960000000 1.0
C      1  0.4519350000000  0.4468200000000  0.4302310000000 1.0
C      1  0.5490240000000  0.4469400000000  0.5695460000000 1.0
C      1  0.5491600000000  0.5530100000000  0.4304240000000 1.0
C      1  0.5629700000000  0.5386830000000  0.4542820000000 1.0
C      1  0.4375620000000  0.5366820000000  0.5481990000000 1.0
C      1  0.4372910000000  0.4632790000000  0.4521090000000 1.0
C      1  0.5591100000000  0.4567200000000  0.5696110000000 1.0
C      1  0.4511120000000  0.5697120000000  0.5527900000000 1.0
C      1  0.5628640000000  0.5481840000000  0.4634030000000 1.0
C      1  0.5593510000000  0.5433280000000  0.4303720000000 1.0
C      1  0.4422480000000  0.4569680000000  0.4288610000000 1.0
C      1  0.4425830000000  0.5430560000000  0.5714160000000 1.0
C      1  0.4508990000000  0.4302850000000  0.4473870000000 1.0
C      1  0.5482040000000  0.5701050000000  0.4470250000000 1.0
C      1  0.5481240000000  0.4298860000000  0.5529270000000 1.0
C      1  0.5627110000000  0.4518830000000  0.5365660000000 1.0
C      1  0.4373270000000  0.5457360000000  0.5386350000000 1.0
C      1  0.4371010000000  0.4541840000000  0.4616310000000 1.0
C      1  0.4211070000000  0.4601000000000  0.5278850000000 1.0
C      1  0.5257300000000  0.4199460000000  0.4594540000000 1.0
C      1  0.4635000000000  0.5321190000000  0.4230290000000 1.0
C      1  0.4215560000000  0.5395600000000  0.4725520000000 1.0
C      1  0.5757610000000  0.5390950000000  0.5316500000000 1.0
C      1  0.5757150000000  0.4611010000000  0.4682400000000 1.0
C      1  0.5258850000000  0.5802370000000  0.5405200000000 1.0
C      1  0.4625200000000  0.5898150000000  0.4524200000000 1.0
C      1  0.4623980000000  0.4098770000000  0.5476750000000 1.0
C      1  0.4633610000000  0.4675020000000  0.5770950000000 1.0
C      1  0.5475800000000  0.4622490000000  0.4103020000000 1.0
C      1  0.5479940000000  0.5381630000000  0.5898830000000 1.0
C      1  0.4244580000000  0.5316390000000  0.4611470000000 1.0
C      1  0.5372740000000  0.4526960000000  0.4103190000000 1.0
C      1  0.4518670000000  0.4098590000000  0.5383500000000 1.0
C      1  0.4240520000000  0.4679990000000  0.5392950000000 1.0
C      1  0.5784320000000  0.5275730000000  0.5394700000000 1.0
C      1  0.5784860000000  0.4725830000000  0.4603870000000 1.0
C      1  0.5376840000000  0.5477820000000  0.5898570000000 1.0
C      1  0.4743760000000  0.4590970000000  0.5800090000000 1.0
C      1  0.4745860000000  0.5404650000000  0.4201080000000 1.0
C      1  0.4519790000000  0.5898840000000  0.4617340000000 1.0
C      1  0.5368570000000  0.4228980000000  0.4677340000000 1.0
C      1  0.5370040000000  0.5773150000000  0.5322260000000 1.0
C      1  0.4514720000000  0.5338160000000  0.4298690000000 1.0
C      1  0.4295410000000  0.4380710000000  0.5317760000000 1.0
C      1  0.5295640000000  0.4301220000000  0.4380120000000 1.0
C      1  0.4513230000000  0.4658510000000  0.5703180000000 1.0
C      1  0.5573130000000  0.4621190000000  0.4202330000000 1.0
C      1  0.5575510000000  0.5382070000000  0.5797690000000 1.0
C      1  0.4297580000000  0.5616350000000  0.4684710000000 1.0
C      1  0.5690600000000  0.5510640000000  0.5337740000000 1.0
C      1  0.5689610000000  0.4491500000000  0.4661450000000 1.0
C      1  0.5298020000000  0.5700980000000  0.5619770000000 1.0
C      1  0.4632530000000  0.5796660000000  0.4430150000000 1.0
C      1  0.4630970000000  0.4199700000000  0.5571340000000 1.0
C      1  0.4421220000000  0.4198130000000  0.5384550000000 1.0
C      1  0.4312500000000  0.5336900000000  0.4492160000000 1.0
C      1  0.5367260000000  0.4429880000000  0.4202300000000 1.0
C      1  0.4422570000000  0.5799090000000  0.4616820000000 1.0
C      1  0.5488730000000  0.4297050000000  0.4659800000000 1.0
C      1  0.5490240000000  0.5705300000000  0.5339770000000 1.0
C      1  0.4309920000000  0.4659860000000  0.5511510000000 1.0
C      1  0.5698160000000  0.5313830000000  0.5614340000000 1.0
C      1  0.5699520000000  0.4687490000000  0.4384050000000 1.0
C      1  0.5371070000000  0.5574590000000  0.5798710000000 1.0
C      1  0.4705070000000  0.4377890000000  0.5696490000000 1.0
C      1  0.4707080000000  0.5617800000000  0.4305610000000 1.0
C      1  0.5686610000000  0.5939020000000  0.4745550000000 1.0
C      1  0.4728720000000  0.5681620000000  0.5892640000000 1.0
C      1  0.5953800000000  0.4726170000000  0.5644890000000 1.0
C      1  0.5686210000000  0.4062220000000  0.5253460000000 1.0
C      1  0.4269180000000  0.4099370000000  0.4749080000000 1.0
C      1  0.4270640000000  0.5899290000000  0.5252230000000 1.0
C      1  0.4726010000000  0.4319110000000  0.4108210000000 1.0
C      1  0.5296170000000  0.4344070000000  0.5917570000000 1.0
C      1  0.5296140000000  0.5654720000000  0.4082440000000 1.0
C      1  0.5956150000000  0.5275390000000  0.4354530000000 1.0
C      1  0.4068850000000  0.5249110000000  0.5712680000000 1.0
C      1  0.4065940000000  0.4750470000000  0.4290470000000 1.0
C      1  0.5726360000000  0.4746830000000  0.5898790000000 1.0
C      1  0.4705880000000  0.5919600000000  0.5649700000000 1.0
C      1  0.5936630000000  0.5712400000000  0.4751090000000 1.0
C      1  0.5730300000000  0.5254550000000  0.4099900000000 1.0
C      1  0.4316730000000  0.4743950000000  0.4064540000000 1.0
C      1  0.4320560000000  0.5256110000000  0.5937460000000 1.0
C      1  0.4704110000000  0.4080870000000  0.4351140000000 1.0
C      1  0.5273960000000  0.5894960000000  0.4323610000000 1.0
C      1  0.5273990000000  0.4104440000000  0.5675860000000 1.0
C      1  0.5935680000000  0.4289420000000  0.5248120000000 1.0
C      1  0.4045460000000  0.5644210000000  0.5274910000000 1.0
C      1  0.4043580000000  0.4354200000000  0.4727310000000 1.0
C      1  0.5968500000000  0.4526630000000  0.5529850000000 1.0
C      1  0.5549440000000  0.5940390000000  0.4560180000000 1.0
C      1  0.4551060000000  0.5539670000000  0.5927450000000 1.0
C      1  0.5970040000000  0.5474980000000  0.4469650000000 1.0
C      1  0.4038130000000  0.5436270000000  0.5580470000000 1.0
C      1  0.4035580000000  0.4562980000000  0.4422300000000 1.0
C      1  0.5549300000000  0.4060050000000  0.5438990000000 1.0
C      1  0.4412040000000  0.4072950000000  0.4571710000000 1.0
C      1  0.4413550000000  0.5926530000000  0.5429460000000 1.0
C      1  0.4548430000000  0.4461480000000  0.4074840000000 1.0
C      1  0.5485220000000  0.4475490000000  0.5927710000000 1.0
C      1  0.5485970000000  0.5524140000000  0.4072100000000 1.0
C      1  0.5965800000000  0.5580430000000  0.4563420000000 1.0
C      1  0.5586030000000  0.4567710000000  0.5925490000000 1.0
C      1  0.4515690000000  0.5929080000000  0.5520190000000 1.0
C      1  0.5964620000000  0.4421250000000  0.5435950000000 1.0
C      1  0.4033030000000  0.5529610000000  0.5474750000000 1.0
C      1  0.4030770000000  0.4469310000000  0.4527780000000 1.0
C      1  0.5587780000000  0.5433000000000  0.4074100000000 1.0
C      1  0.4452100000000  0.4557440000000  0.4062670000000 1.0
C      1  0.4455000000000  0.5443240000000  0.5939970000000 1.0
C      1  0.4514150000000  0.4070890000000  0.4480940000000 1.0
C      1  0.5452630000000  0.5928400000000  0.4464710000000 1.0
C      1  0.5452530000000  0.4071640000000  0.5534550000000 1.0
C      1  0.5780400000000  0.5095500000000  0.5796110000000 1.0
C      1  0.5834660000000  0.5760210000000  0.5107620000000 1.0
C      1  0.5067060000000  0.5863880000000  0.5701840000000 1.0
C      1  0.5784910000000  0.4905340000000  0.4201810000000 1.0
C      1  0.4277340000000  0.4894790000000  0.5857140000000 1.0
C      1  0.4274550000000  0.5105040000000  0.4145400000000 1.0
C      1  0.5833560000000  0.4241980000000  0.4891540000000 1.0
C      1  0.4121250000000  0.4313550000000  0.5088010000000 1.0
C      1  0.4123000000000  0.5683860000000  0.4914010000000 1.0
C      1  0.5065030000000  0.4137000000000  0.4298170000000 1.0
C      1  0.4926970000000  0.4190050000000  0.5756970000000 1.0
C      1  0.4927400000000  0.5806390000000  0.4244110000000 1.0
C      1  0.5730920000000  0.5858460000000  0.5106770000000 1.0
C      1  0.5870390000000  0.5085570000000  0.5683380000000 1.0
C      1  0.5075630000000  0.5764130000000  0.5806120000000 1.0
C      1  0.5729870000000  0.4143690000000  0.4892340000000 1.0
C      1  0.4210730000000  0.5798250000000  0.4903010000000 1.0
C      1  0.4209260000000  0.4199360000000  0.5098610000000 1.0
C      1  0.5873630000000  0.4915590000000  0.4315530000000 1.0
C      1  0.4170300000000  0.5106220000000  0.4243070000000 1.0
C      1  0.4171840000000  0.4893150000000  0.5760840000000 1.0
C      1  0.5073210000000  0.4236440000000  0.4193590000000 1.0
C      1  0.4935470000000  0.5703680000000  0.4142660000000 1.0
C      1  0.4935160000000  0.4292850000000  0.5858370000000 1.0
C      1  0.4167200000000  0.4403260000000  0.4281360000000 1.0
C      1  0.4261920000000  0.4208750000000  0.4400020000000 1.0
C      1  0.4376200000000  0.4304990000000  0.4205150000000 1.0
C      1  0.4169760000000  0.5596420000000  0.5720900000000 1.0
C      1  0.5840870000000  0.5615910000000  0.4306830000000 1.0
C      1  0.5839800000000  0.4385340000000  0.5692580000000 1.0
C      1  0.4263850000000  0.5790900000000  0.5601670000000 1.0
C      1  0.5724010000000  0.5811790000000  0.4404670000000 1.0
C      1  0.5723710000000  0.4188980000000  0.5594570000000 1.0
C      1  0.4378440000000  0.5695440000000  0.5796780000000 1.0
C      1  0.5632530000000  0.5696180000000  0.4209840000000 1.0
C      1  0.5632130000000  0.4304100000000  0.5789650000000 1.0
C      1  0.4159790000000  0.4305900000000  0.4387410000000 1.0
C      1  0.4277060000000  0.4403040000000  0.4191610000000 1.0
C      1  0.4368010000000  0.4208180000000  0.4307900000000 1.0
C      1  0.4161970000000  0.5693530000000  0.5614620000000 1.0
C      1  0.5833120000000  0.4279400000000  0.5594960000000 1.0
C      1  0.5833820000000  0.5721860000000  0.4404340000000 1.0
C      1  0.4279640000000  0.5597100000000  0.5810640000000 1.0
C      1  0.5737570000000  0.4397080000000  0.5789650000000 1.0
C      1  0.5738490000000  0.5603790000000  0.4209930000000 1.0
C      1  0.4369990000000  0.5791930000000  0.5693720000000 1.0
C      1  0.5624330000000  0.4201610000000  0.5692430000000 1.0
C      1  0.5624530000000  0.5798730000000  0.4306920000000 1.0
C      1  0.4378360000000  0.5584700000000  0.5356780000000 1.0
C      1  0.5613110000000  0.4390290000000  0.5344180000000 1.0
C      1  0.5614340000000  0.5610380000000  0.4655380000000 1.0
C      1  0.5433950000000  0.4407920000000  0.5590580000000 1.0
C      1  0.4391010000000  0.5346050000000  0.5610450000000 1.0
C      1  0.4568250000000  0.5593060000000  0.5589990000000 1.0
C      1  0.5624240000000  0.5358000000000  0.4415310000000 1.0
C      1  0.5621590000000  0.4642470000000  0.5584440000000 1.0
C      1  0.4376210000000  0.4414410000000  0.4645520000000 1.0
C      1  0.5435250000000  0.5591640000000  0.4409120000000 1.0
C      1  0.4565650000000  0.4407340000000  0.4412070000000 1.0
C      1  0.4387590000000  0.4653890000000  0.4392560000000 1.0
END
