TITL C-66629-8849-5 -4.33503877693089 1000000 -3777.47171080146 0 0 540 (C1) n - 1
REM
REM in /home/chem/mssmkc/work/GAP20/Larger-Clusters/Only-C240/New/BUILD-ONLY/Try2-C540
REM
REM
REM
REM
REM
REM ./C.cell (4d22446d3c8a03e2533cb19ef5564aa4)
REM
REM compiler GCC version 8.3.0
REM options -cpp -mtune=generic -march=x86-64 -g -O0
REM seed 742636718 -1196312597 149810277 1664105109 -505310921 1182722932 -571831215 -307879919 -1290159126 -1011376199 2138642097 1016539219 2101550064 354804432 -1040383934 -22521964 2005797269 -1185511769 145622412 183994563 -1322624137 -163142185 1572464392 -2038454877 967697133 728513192 -1213796875 721128246 -654952214 1571482026 -652278448 -2052744298 1918166493
REM
CELL 1.54180  100.00000  100.00000  100.00000   90.00000   90.00000   90.00000
LATT -1
SFAC C  
C      1  0.5158590000000  0.4149850000000  0.5125860000000 1.0
C      1  0.5144710000000  0.5120430000000  0.4146400000000 1.0
C      1  0.4133720000000  0.5150510000000  0.5147250000000 1.0
C      1  0.4866650000000  0.4116920000000  0.4819190000000 1.0
C      1  0.5184160000000  0.5919870000000  0.4871270000000 1.0
C      1  0.4863040000000  0.5890790000000  0.5141960000000 1.0
C      1  0.4839400000000  0.5134450000000  0.5888020000000 1.0
C      1  0.5138540000000  0.4875700000000  0.5870080000000 1.0
C      1  0.4860550000000  0.4819460000000  0.4148860000000 1.0
C      1  0.5846410000000  0.5148790000000  0.4827210000000 1.0
C      1  0.4145650000000  0.4856520000000  0.4856860000000 1.0
C      1  0.5843740000000  0.4856990000000  0.5121760000000 1.0
C      1  0.5154350000000  0.5890690000000  0.5151620000000 1.0
C      1  0.5142650000000  0.4833890000000  0.4131290000000 1.0
C      1  0.4127500000000  0.4850000000000  0.5150110000000 1.0
C      1  0.4902890000000  0.5861660000000  0.4854970000000 1.0
C      1  0.5158940000000  0.4129080000000  0.4843620000000 1.0
C      1  0.4852370000000  0.4132930000000  0.5120260000000 1.0
C      1  0.4848960000000  0.4840050000000  0.5905980000000 1.0
C      1  0.5128050000000  0.5161980000000  0.5902310000000 1.0
C      1  0.4860100000000  0.5128880000000  0.4167690000000 1.0
C      1  0.5865310000000  0.4863750000000  0.4833570000000 1.0
C      1  0.4163860000000  0.5143170000000  0.4847740000000 1.0
C      1  0.5825710000000  0.5151370000000  0.5139830000000 1.0
C      1  0.5703970000000  0.4350550000000  0.5037330000000 1.0
C      1  0.5111160000000  0.5681400000000  0.4370060000000 1.0
C      1  0.4337520000000  0.5074010000000  0.5724090000000 1.0
C      1  0.4301190000000  0.4320540000000  0.4854710000000 1.0
C      1  0.5735860000000  0.5713230000000  0.4903440000000 1.0
C      1  0.4321290000000  0.5634620000000  0.5102410000000 1.0
C      1  0.4942440000000  0.5696740000000  0.5659040000000 1.0
C      1  0.5026460000000  0.4298470000000  0.5669860000000 1.0
C      1  0.4966560000000  0.4274200000000  0.4326040000000 1.0
C      1  0.5665180000000  0.5046060000000  0.4283780000000 1.0
C      1  0.4301270000000  0.4890120000000  0.4265170000000 1.0
C      1  0.5630460000000  0.4909300000000  0.5681970000000 1.0
C      1  0.5728270000000  0.5708720000000  0.5052790000000 1.0
C      1  0.5116510000000  0.4267950000000  0.4321780000000 1.0
C      1  0.4338920000000  0.4923280000000  0.5723130000000 1.0
C      1  0.4334450000000  0.5630700000000  0.4954610000000 1.0
C      1  0.5719450000000  0.4341990000000  0.4888230000000 1.0
C      1  0.4209290000000  0.4301370000000  0.5145650000000 1.0
C      1  0.4878000000000  0.4287160000000  0.5676600000000 1.0
C      1  0.5091960000000  0.5698440000000  0.5658270000000 1.0
C      1  0.4962630000000  0.5671130000000  0.4367470000000 1.0
C      1  0.5669460000000  0.4896830000000  0.4273000000000 1.0
C      1  0.4309720000000  0.5039190000000  0.4276990000000 1.0
C      1  0.5629760000000  0.5059650000000  0.5682730000000 1.0
C      1  0.4924610000000  0.5065060000000  0.4047300000000 1.0
C      1  0.4026760000000  0.4924030000000  0.5073930000000 1.0
C      1  0.5088940000000  0.4019850000000  0.4908600000000 1.0
C      1  0.5067540000000  0.5080500000000  0.6005300000000 1.0
C      1  0.4918910000000  0.4919270000000  0.6005950000000 1.0
C      1  0.5072480000000  0.4906990000000  0.4027620000000 1.0
C      1  0.5965200000000  0.4934130000000  0.4911860000000 1.0
C      1  0.4044360000000  0.5076160000000  0.4911970000000 1.0
C      1  0.5944010000000  0.5081460000000  0.5072880000000 1.0
C      1  0.4928290000000  0.4024230000000  0.5050140000000 1.0
C      1  0.5092550000000  0.6008480000000  0.5076760000000 1.0
C      1  0.4938270000000  0.5991170000000  0.4928330000000 1.0
C      1  0.4924810000000  0.4899040000000  0.4036460000000 1.0
C      1  0.4031760000000  0.5073810000000  0.5073330000000 1.0
C      1  0.5092950000000  0.6017290000000  0.4927150000000 1.0
C      1  0.5066200000000  0.4924660000000  0.5994490000000 1.0
C      1  0.4919300000000  0.5076580000000  0.6002840000000 1.0
C      1  0.5071730000000  0.5059430000000  0.4037130000000 1.0
C      1  0.5956310000000  0.5082050000000  0.4905380000000 1.0
C      1  0.4036590000000  0.4927080000000  0.4920350000000 1.0
C      1  0.5951750000000  0.4933650000000  0.5063750000000 1.0
C      1  0.4934700000000  0.6000490000000  0.5077320000000 1.0
C      1  0.5093740000000  0.4029180000000  0.5056930000000 1.0
C      1  0.4935480000000  0.4018050000000  0.4901980000000 1.0
C      1  0.4856840000000  0.4702520000000  0.5953140000000 1.0
C      1  0.5921120000000  0.4879760000000  0.4699030000000 1.0
C      1  0.4758820000000  0.5859570000000  0.4836500000000 1.0
C      1  0.5126300000000  0.4698080000000  0.4078300000000 1.0
C      1  0.4805910000000  0.5262850000000  0.4150990000000 1.0
C      1  0.5118360000000  0.5296500000000  0.5949130000000 1.0
C      1  0.4083260000000  0.4871140000000  0.5290510000000 1.0
C      1  0.5847750000000  0.5214520000000  0.5274230000000 1.0
C      1  0.4143450000000  0.5194220000000  0.4711050000000 1.0
C      1  0.5294430000000  0.5915140000000  0.5182550000000 1.0
C      1  0.4721640000000  0.4093620000000  0.5164640000000 1.0
C      1  0.5297500000000  0.4084840000000  0.4867630000000 1.0
C      1  0.4815360000000  0.5278090000000  0.5909000000000 1.0
C      1  0.5881730000000  0.5202310000000  0.4695480000000 1.0
C      1  0.4725370000000  0.4070660000000  0.4818710000000 1.0
C      1  0.5129400000000  0.5260810000000  0.4111460000000 1.0
C      1  0.4804280000000  0.4687550000000  0.4116830000000 1.0
C      1  0.5150720000000  0.4731670000000  0.5882860000000 1.0
C      1  0.4092820000000  0.5224260000000  0.5275790000000 1.0
C      1  0.5877820000000  0.4865410000000  0.5263580000000 1.0
C      1  0.4102070000000  0.4877720000000  0.4717610000000 1.0
C      1  0.5291060000000  0.4131920000000  0.5188390000000 1.0
C      1  0.4722890000000  0.5926260000000  0.5132430000000 1.0
C      1  0.5314480000000  0.5977890000000  0.4886010000000 1.0
C      1  0.5499870000000  0.5582450000000  0.5556900000000 1.0
C      1  0.5587590000000  0.5478120000000  0.5533670000000 1.0
C      1  0.5589730000000  0.5593030000000  0.5453270000000 1.0
C      1  0.4553640000000  0.5503800000000  0.4439040000000 1.0
C      1  0.5543700000000  0.4368900000000  0.4358370000000 1.0
C      1  0.4450670000000  0.4386590000000  0.5635470000000 1.0
C      1  0.4439440000000  0.5423800000000  0.4452040000000 1.0
C      1  0.5639350000000  0.4466500000000  0.4359960000000 1.0
C      1  0.4368340000000  0.4496890000000  0.5631290000000 1.0
C      1  0.4465770000000  0.5521710000000  0.4546370000000 1.0
C      1  0.5638420000000  0.4370070000000  0.4456740000000 1.0
C      1  0.4350750000000  0.4394810000000  0.5540600000000 1.0
C      1  0.5427850000000  0.4424570000000  0.5546800000000 1.0
C      1  0.5534380000000  0.4511350000000  0.5541970000000 1.0
C      1  0.5515580000000  0.4421960000000  0.5436740000000 1.0
C      1  0.4549600000000  0.4425340000000  0.4372790000000 1.0
C      1  0.5529220000000  0.5563660000000  0.4430970000000 1.0
C      1  0.4518700000000  0.5582260000000  0.5623540000000 1.0
C      1  0.4427460000000  0.4493040000000  0.4356000000000 1.0
C      1  0.5626170000000  0.5464470000000  0.4441750000000 1.0
C      1  0.4413300000000  0.5492740000000  0.5628960000000 1.0
C      1  0.4447150000000  0.4413100000000  0.4465860000000 1.0
C      1  0.5637680000000  0.5586770000000  0.4509380000000 1.0
C      1  0.4420380000000  0.5585330000000  0.5527010000000 1.0
C      1  0.4094160000000  0.4566840000000  0.4686990000000 1.0
C      1  0.4750230000000  0.4082500000000  0.4556260000000 1.0
C      1  0.4446800000000  0.4685790000000  0.3991290000000 1.0
C      1  0.5883550000000  0.4586770000000  0.5256660000000 1.0
C      1  0.4124650000000  0.5373680000000  0.5271570000000 1.0
C      1  0.6003020000000  0.5558560000000  0.4693360000000 1.0
C      1  0.5272040000000  0.4044780000000  0.5544880000000 1.0
C      1  0.4714740000000  0.5906410000000  0.5442540000000 1.0
C      1  0.5314730000000  0.5925790000000  0.4570830000000 1.0
C      1  0.5498100000000  0.4688550000000  0.5943760000000 1.0
C      1  0.4466650000000  0.5295940000000  0.5997180000000 1.0
C      1  0.5440530000000  0.5285630000000  0.4108630000000 1.0
C      1  0.4068670000000  0.5543480000000  0.4709180000000 1.0
C      1  0.4706610000000  0.5904130000000  0.4488980000000 1.0
C      1  0.4452540000000  0.5291730000000  0.4048890000000 1.0
C      1  0.5974510000000  0.5561870000000  0.5293570000000 1.0
C      1  0.4064510000000  0.4616750000000  0.5262630000000 1.0
C      1  0.5931470000000  0.4572800000000  0.4682050000000 1.0
C      1  0.5310720000000  0.5972830000000  0.5536080000000 1.0
C      1  0.4675100000000  0.4046970000000  0.5479450000000 1.0
C      1  0.5325090000000  0.4068580000000  0.4560810000000 1.0
C      1  0.5430160000000  0.5296830000000  0.5893190000000 1.0
C      1  0.4548150000000  0.4698210000000  0.5943670000000 1.0
C      1  0.5433800000000  0.4689700000000  0.4065910000000 1.0
C      1  0.4345280000000  0.4636770000000  0.5655890000000 1.0
C      1  0.5669650000000  0.4342040000000  0.4595520000000 1.0
C      1  0.4682530000000  0.5551320000000  0.4384630000000 1.0
C      1  0.5667360000000  0.4604670000000  0.4326510000000 1.0
C      1  0.4363170000000  0.5307340000000  0.4404500000000 1.0
C      1  0.5615970000000  0.5340930000000  0.5575250000000 1.0
C      1  0.4297180000000  0.4366270000000  0.5410610000000 1.0
C      1  0.5631980000000  0.5660650000000  0.5332240000000 1.0
C      1  0.4427590000000  0.5582040000000  0.4674220000000 1.0
C      1  0.5378860000000  0.5627850000000  0.5619780000000 1.0
C      1  0.4582540000000  0.4338990000000  0.5670550000000 1.0
C      1  0.5406790000000  0.4331780000000  0.4328570000000 1.0
C      1  0.4364290000000  0.5362150000000  0.5663220000000 1.0
C      1  0.5676510000000  0.5672180000000  0.4618400000000 1.0
C      1  0.4688500000000  0.4386590000000  0.4347860000000 1.0
C      1  0.5655700000000  0.5326340000000  0.4402700000000 1.0
C      1  0.4341530000000  0.4603370000000  0.4319020000000 1.0
C      1  0.5594910000000  0.4627190000000  0.5600340000000 1.0
C      1  0.4376580000000  0.5613990000000  0.5392530000000 1.0
C      1  0.5570870000000  0.4385630000000  0.5305590000000 1.0
C      1  0.4392300000000  0.4375810000000  0.4592760000000 1.0
C      1  0.5305120000000  0.4390890000000  0.5617270000000 1.0
C      1  0.4655050000000  0.5620110000000  0.5651830000000 1.0
C      1  0.5398180000000  0.5614260000000  0.4397940000000 1.0
C      1  0.4942160000000  0.5795790000000  0.5203490000000 1.0
C      1  0.5192250000000  0.4968050000000  0.5785940000000 1.0
C      1  0.5748550000000  0.5189600000000  0.4913270000000 1.0
C      1  0.5130120000000  0.5806240000000  0.4814980000000 1.0
C      1  0.4950690000000  0.4211830000000  0.4766920000000 1.0
C      1  0.5062100000000  0.4237180000000  0.5167100000000 1.0
C      1  0.4822480000000  0.4904930000000  0.4248170000000 1.0
C      1  0.5216540000000  0.5037220000000  0.4229280000000 1.0
C      1  0.4779430000000  0.5044240000000  0.5805750000000 1.0
C      1  0.4240340000000  0.5187340000000  0.5070680000000 1.0
C      1  0.5759180000000  0.4794130000000  0.5033470000000 1.0
C      1  0.4228840000000  0.4784610000000  0.4940280000000 1.0
C      1  0.4934260000000  0.4230810000000  0.5167250000000 1.0
C      1  0.5183680000000  0.5096370000000  0.5794970000000 1.0
C      1  0.5769540000000  0.4794490000000  0.4903990000000 1.0
C      1  0.5080700000000  0.4217200000000  0.4771990000000 1.0
C      1  0.5003220000000  0.5786270000000  0.4801940000000 1.0
C      1  0.5070890000000  0.5799040000000  0.5207530000000 1.0
C      1  0.4821690000000  0.5032430000000  0.4256210000000 1.0
C      1  0.5214120000000  0.4907960000000  0.4223510000000 1.0
C      1  0.4784210000000  0.4915200000000  0.5809760000000 1.0
C      1  0.4223130000000  0.4788450000000  0.5070700000000 1.0
C      1  0.5740120000000  0.5190980000000  0.5040960000000 1.0
C      1  0.4252520000000  0.5183830000000  0.4942560000000 1.0
C      1  0.5068580000000  0.6134140000000  0.4835960000000 1.0
C      1  0.4847070000000  0.5071740000000  0.6132210000000 1.0
C      1  0.6083590000000  0.4863910000000  0.5074170000000 1.0
C      1  0.4934200000000  0.6125240000000  0.5158550000000 1.0
C      1  0.5083690000000  0.3908310000000  0.5141040000000 1.0
C      1  0.4939730000000  0.3885150000000  0.4833660000000 1.0
C      1  0.5137210000000  0.5067390000000  0.3903660000000 1.0
C      1  0.4841410000000  0.4918710000000  0.3916690000000 1.0
C      1  0.5148300000000  0.4923100000000  0.6118620000000 1.0
C      1  0.3906300000000  0.4856600000000  0.4911350000000 1.0
C      1  0.6078020000000  0.5162150000000  0.4925630000000 1.0
C      1  0.3903060000000  0.5147900000000  0.5052910000000 1.0
C      1  0.5090250000000  0.3887190000000  0.4840170000000 1.0
C      1  0.4847660000000  0.4925310000000  0.6136550000000 1.0
C      1  0.6069030000000  0.5160700000000  0.5068880000000 1.0
C      1  0.4940680000000  0.3899280000000  0.5129150000000 1.0
C      1  0.5080270000000  0.6129260000000  0.5160690000000 1.0
C      1  0.4924320000000  0.6111840000000  0.4841980000000 1.0
C      1  0.5141060000000  0.4916990000000  0.3895570000000 1.0
C      1  0.4842730000000  0.5062230000000  0.3924900000000 1.0
C      1  0.5152040000000  0.5069270000000  0.6127250000000 1.0
C      1  0.3916870000000  0.5153190000000  0.4910730000000 1.0
C      1  0.6097470000000  0.4866590000000  0.4924600000000 1.0
C      1  0.3896730000000  0.4847720000000  0.5061160000000 1.0
C      1  0.5476470000000  0.5067390000000  0.4000500000000 1.0
C      1  0.4013690000000  0.5472760000000  0.5076230000000 1.0
C      1  0.5049330000000  0.3996160000000  0.5492840000000 1.0
C      1  0.4499240000000  0.5069820000000  0.6036450000000 1.0
C      1  0.5484670000000  0.4920070000000  0.5989400000000 1.0
C      1  0.4479080000000  0.4918490000000  0.3972570000000 1.0
C      1  0.6029800000000  0.5524730000000  0.4923040000000 1.0
C      1  0.4008240000000  0.4513510000000  0.4903660000000 1.0
C      1  0.5995830000000  0.4522530000000  0.5057010000000 1.0
C      1  0.4958280000000  0.3979290000000  0.4495120000000 1.0
C      1  0.5079090000000  0.5991510000000  0.4516290000000 1.0
C      1  0.4936310000000  0.6004050000000  0.5490390000000 1.0
C      1  0.5476840000000  0.4920980000000  0.3989750000000 1.0
C      1  0.3986530000000  0.4512870000000  0.5050290000000 1.0
C      1  0.5081910000000  0.6011860000000  0.5504650000000 1.0
C      1  0.4511810000000  0.4924390000000  0.6033190000000 1.0
C      1  0.5476030000000  0.5067210000000  0.5988250000000 1.0
C      1  0.4481140000000  0.5064900000000  0.3983740000000 1.0
C      1  0.6007320000000  0.4528280000000  0.4911690000000 1.0
C      1  0.4012870000000  0.5495300000000  0.4932150000000 1.0
C      1  0.6023830000000  0.5524900000000  0.5069100000000 1.0
C      1  0.4932790000000  0.5976590000000  0.4506550000000 1.0
C      1  0.5103730000000  0.3978190000000  0.4505380000000 1.0
C      1  0.4903650000000  0.3996140000000  0.5475970000000 1.0
C      1  0.5188550000000  0.5794210000000  0.5608950000000 1.0
C      1  0.5564520000000  0.5164200000000  0.5759170000000 1.0
C      1  0.5815320000000  0.5657190000000  0.5156970000000 1.0
C      1  0.4849960000000  0.5748120000000  0.4412400000000 1.0
C      1  0.5211890000000  0.4188730000000  0.4396720000000 1.0
C      1  0.4784130000000  0.4195340000000  0.5612250000000 1.0
C      1  0.4361230000000  0.5148600000000  0.4199460000000 1.0
C      1  0.5595020000000  0.4803090000000  0.4190840000000 1.0
C      1  0.4404810000000  0.4826260000000  0.5810400000000 1.0
C      1  0.4244580000000  0.5589090000000  0.4849310000000 1.0
C      1  0.5804230000000  0.4414000000000  0.4795020000000 1.0
C      1  0.4159500000000  0.4414080000000  0.5212140000000 1.0
C      1  0.5131450000000  0.4209070000000  0.5623040000000 1.0
C      1  0.5579950000000  0.4810400000000  0.5772410000000 1.0
C      1  0.5764790000000  0.4424390000000  0.5143380000000 1.0
C      1  0.4861750000000  0.4205680000000  0.4395970000000 1.0
C      1  0.5203890000000  0.5771820000000  0.4435910000000 1.0
C      1  0.4841920000000  0.5777910000000  0.5590400000000 1.0
C      1  0.4344820000000  0.4798980000000  0.4162550000000 1.0
C      1  0.5592530000000  0.5153090000000  0.4219820000000 1.0
C      1  0.4385990000000  0.5170960000000  0.5822060000000 1.0
C      1  0.4223700000000  0.4404100000000  0.4779490000000 1.0
C      1  0.5836130000000  0.5664230000000  0.4811270000000 1.0
C      1  0.4235110000000  0.5562060000000  0.5192090000000 1.0
C      1  0.4438750000000  0.5165010000000  0.5957790000000 1.0
C      1  0.5893360000000  0.4498230000000  0.5149220000000 1.0
C      1  0.5190060000000  0.5906020000000  0.4498820000000 1.0
C      1  0.5511880000000  0.5160990000000  0.4097970000000 1.0
C      1  0.4410480000000  0.4814600000000  0.4031960000000 1.0
C      1  0.5531430000000  0.4818480000000  0.5907890000000 1.0
C      1  0.4100810000000  0.4483420000000  0.4802380000000 1.0
C      1  0.5966220000000  0.5595190000000  0.4823010000000 1.0
C      1  0.4115010000000  0.5475680000000  0.5173110000000 1.0
C      1  0.4840430000000  0.5905840000000  0.5514880000000 1.0
C      1  0.5136830000000  0.4073080000000  0.5566440000000 1.0
C      1  0.4860480000000  0.4076970000000  0.4470130000000 1.0
C      1  0.4480320000000  0.4826440000000  0.5938990000000 1.0
C      1  0.5949960000000  0.5596740000000  0.5160670000000 1.0
C      1  0.5204880000000  0.4069040000000  0.4481200000000 1.0
C      1  0.5508190000000  0.4814190000000  0.4072600000000 1.0
C      1  0.4416800000000  0.5157850000000  0.4064510000000 1.0
C      1  0.5499300000000  0.5167950000000  0.5891600000000 1.0
C      1  0.4100940000000  0.5556060000000  0.4844720000000 1.0
C      1  0.5923980000000  0.4497950000000  0.4805480000000 1.0
C      1  0.4058820000000  0.4509410000000  0.5170260000000 1.0
C      1  0.4800990000000  0.4073570000000  0.5530260000000 1.0
C      1  0.5180060000000  0.5932640000000  0.5561570000000 1.0
C      1  0.4841260000000  0.5883960000000  0.4458870000000 1.0
C      1  0.4947280000000  0.3873850000000  0.4597270000000 1.0
C      1  0.4613070000000  0.4917440000000  0.3917930000000 1.0
C      1  0.3903080000000  0.4619810000000  0.4890930000000 1.0
C      1  0.5067470000000  0.3919540000000  0.5370940000000 1.0
C      1  0.4940580000000  0.6111960000000  0.5389940000000 1.0
C      1  0.5058540000000  0.6107540000000  0.4607070000000 1.0
C      1  0.5382760000000  0.4907490000000  0.6091760000000 1.0
C      1  0.4610600000000  0.5084660000000  0.6129150000000 1.0
C      1  0.5372940000000  0.5076550000000  0.3894790000000 1.0
C      1  0.6096100000000  0.4628260000000  0.5073100000000 1.0
C      1  0.3906410000000  0.5374280000000  0.5065430000000 1.0
C      1  0.6082650000000  0.5390110000000  0.4922760000000 1.0
C      1  0.4909650000000  0.6079100000000  0.4606950000000 1.0
C      1  0.4614490000000  0.5068530000000  0.3927350000000 1.0
C      1  0.3917130000000  0.5385620000000  0.4914290000000 1.0
C      1  0.5092380000000  0.6110500000000  0.5397750000000 1.0
C      1  0.4916590000000  0.3912510000000  0.5356690000000 1.0
C      1  0.5101150000000  0.3869830000000  0.4606160000000 1.0
C      1  0.5381610000000  0.5059080000000  0.6103000000000 1.0
C      1  0.4616670000000  0.4932830000000  0.6136980000000 1.0
C      1  0.5375260000000  0.4923770000000  0.3882940000000 1.0
C      1  0.6075100000000  0.5389180000000  0.5074210000000 1.0
C      1  0.3881770000000  0.4615610000000  0.5040280000000 1.0
C      1  0.6111930000000  0.4632550000000  0.4919830000000 1.0
C      1  0.5158790000000  0.5581540000000  0.5714710000000 1.0
C      1  0.5693250000000  0.5114200000000  0.5572200000000 1.0
C      1  0.5604140000000  0.5757470000000  0.5108530000000 1.0
C      1  0.4913670000000  0.5553160000000  0.4314390000000 1.0
C      1  0.5180670000000  0.4374690000000  0.4245930000000 1.0
C      1  0.4807820000000  0.4394120000000  0.5747470000000 1.0
C      1  0.4268530000000  0.5088330000000  0.4399960000000 1.0
C      1  0.5747330000000  0.4830340000000  0.4376990000000 1.0
C      1  0.4274340000000  0.4864220000000  0.5608240000000 1.0
C      1  0.4463230000000  0.5675390000000  0.4901740000000 1.0
C      1  0.5616500000000  0.4263960000000  0.4820960000000 1.0
C      1  0.4291860000000  0.4234330000000  0.5219080000000 1.0
C      1  0.5080500000000  0.4427100000000  0.5714420000000 1.0
C      1  0.5685390000000  0.4851090000000  0.5565540000000 1.0
C      1  0.5591180000000  0.4285940000000  0.5086950000000 1.0
C      1  0.4913760000000  0.4385600000000  0.4261070000000 1.0
C      1  0.5177760000000  0.5570090000000  0.4305250000000 1.0
C      1  0.4883220000000  0.5584160000000  0.5729440000000 1.0
C      1  0.4253170000000  0.4821290000000  0.4385560000000 1.0
C      1  0.5734450000000  0.5097280000000  0.4393390000000 1.0
C      1  0.4285130000000  0.5135990000000  0.5606580000000 1.0
C      1  0.4418270000000  0.4267570000000  0.4810400000000 1.0
C      1  0.5617470000000  0.5767750000000  0.4833170000000 1.0
C      1  0.4425210000000  0.5707970000000  0.5174710000000 1.0
C      1  0.4595660000000  0.5880040000000  0.4565060000000 1.0
C      1  0.4644270000000  0.4615460000000  0.5882530000000 1.0
C      1  0.5870540000000  0.4665380000000  0.4597300000000 1.0
C      1  0.5424720000000  0.5966270000000  0.5460670000000 1.0
C      1  0.4565300000000  0.4068440000000  0.5399380000000 1.0
C      1  0.5403190000000  0.4135610000000  0.4654530000000 1.0
C      1  0.5343360000000  0.4601110000000  0.4127420000000 1.0
C      1  0.4526120000000  0.5402790000000  0.4077850000000 1.0
C      1  0.5322210000000  0.5363010000000  0.5838880000000 1.0
C      1  0.4197570000000  0.4703680000000  0.5449830000000 1.0
C      1  0.5948540000000  0.5491080000000  0.5408300000000 1.0
C      1  0.4078680000000  0.5477520000000  0.4589980000000 1.0
C      1  0.4584920000000  0.4216330000000  0.4650430000000 1.0
C      1  0.4541760000000  0.5410990000000  0.5984960000000 1.0
C      1  0.5981760000000  0.5485850000000  0.4577510000000 1.0
C      1  0.5391880000000  0.4064980000000  0.5479340000000 1.0
C      1  0.4637290000000  0.5844600000000  0.5343500000000 1.0
C      1  0.5386960000000  0.5879510000000  0.4678540000000 1.0
C      1  0.5344780000000  0.5359510000000  0.4177290000000 1.0
C      1  0.4522250000000  0.4571350000000  0.4011740000000 1.0
C      1  0.5420470000000  0.4576460000000  0.5931880000000 1.0
C      1  0.4236310000000  0.5301290000000  0.5453940000000 1.0
C      1  0.5739160000000  0.4690720000000  0.5403110000000 1.0
C      1  0.4152620000000  0.4665830000000  0.4612130000000 1.0
C      1  0.5811270000000  0.5031780000000  0.4493210000000 1.0
C      1  0.4534650000000  0.5777330000000  0.5116950000000 1.0
C      1  0.5006500000000  0.4526100000000  0.5790950000000 1.0
C      1  0.4212070000000  0.5075110000000  0.5496230000000 1.0
C      1  0.5760070000000  0.4916050000000  0.5463860000000 1.0
C      1  0.4197500000000  0.4885820000000  0.4501540000000 1.0
C      1  0.5509970000000  0.5838490000000  0.4896250000000 1.0
C      1  0.4520150000000  0.4190440000000  0.4876370000000 1.0
C      1  0.5494760000000  0.4205420000000  0.5021310000000 1.0
C      1  0.4976850000000  0.4488120000000  0.4185530000000 1.0
C      1  0.5117120000000  0.5460470000000  0.4234310000000 1.0
C      1  0.4955410000000  0.5479070000000  0.5798580000000 1.0
C      1  0.5818000000000  0.4892960000000  0.4486860000000 1.0
C      1  0.4542520000000  0.4171260000000  0.5011800000000 1.0
C      1  0.5097550000000  0.5480820000000  0.5795590000000 1.0
C      1  0.4204900000000  0.4934180000000  0.5502150000000 1.0
C      1  0.5766660000000  0.5053020000000  0.5466130000000 1.0
C      1  0.4206870000000  0.5023180000000  0.4508240000000 1.0
C      1  0.5505940000000  0.4194530000000  0.4883240000000 1.0
C      1  0.4558610000000  0.5755310000000  0.4977600000000 1.0
C      1  0.5501310000000  0.5827770000000  0.5037210000000 1.0
C      1  0.4979300000000  0.5451010000000  0.4242590000000 1.0
C      1  0.5116030000000  0.4484480000000  0.4177700000000 1.0
C      1  0.4867430000000  0.4505830000000  0.5813660000000 1.0
C      1  0.4731820000000  0.6014180000000  0.4793360000000 1.0
C      1  0.4953140000000  0.4675980000000  0.6051500000000 1.0
C      1  0.6017980000000  0.4976030000000  0.4674260000000 1.0
C      1  0.5287160000000  0.6070420000000  0.5221810000000 1.0
C      1  0.4727380000000  0.3946380000000  0.5173570000000 1.0
C      1  0.5327770000000  0.3993070000000  0.4967830000000 1.0
C      1  0.5029370000000  0.4669460000000  0.3982760000000 1.0
C      1  0.4782290000000  0.5267300000000  0.3998310000000 1.0
C      1  0.5031740000000  0.5322200000000  0.6055840000000 1.0
C      1  0.3977750000000  0.4962570000000  0.5306470000000 1.0
C      1  0.5999620000000  0.5220590000000  0.5273500000000 1.0
C      1  0.3988190000000  0.5220180000000  0.4714040000000 1.0
C      1  0.4698900000000  0.3971360000000  0.4919470000000 1.0
C      1  0.4789400000000  0.5275890000000  0.6069560000000 1.0
C      1  0.6033500000000  0.5225620000000  0.4713070000000 1.0
C      1  0.5282600000000  0.3979240000000  0.5216120000000 1.0
C      1  0.4688460000000  0.6022090000000  0.5035970000000 1.0
C      1  0.5334470000000  0.6079130000000  0.4980490000000 1.0
C      1  0.5033010000000  0.5299210000000  0.4017610000000 1.0
C      1  0.4779310000000  0.4706390000000  0.3965360000000 1.0
C      1  0.5195400000000  0.4721870000000  0.6043340000000 1.0
C      1  0.3937220000000  0.5203260000000  0.5264420000000 1.0
C      1  0.5972690000000  0.4966440000000  0.5300900000000 1.0
C      1  0.4002920000000  0.4971590000000  0.4683860000000 1.0
C      1  0.5820650000000  0.5167280000000  0.4570830000000 1.0
C      1  0.4623420000000  0.5848270000000  0.5201940000000 1.0
C      1  0.5079990000000  0.4635440000000  0.5827270000000 1.0
C      1  0.4172570000000  0.5185080000000  0.5404990000000 1.0
C      1  0.5801350000000  0.4815180000000  0.5370630000000 1.0
C      1  0.4153190000000  0.4805320000000  0.4606360000000 1.0
C      1  0.5413400000000  0.5902450000000  0.4816350000000 1.0
C      1  0.4614120000000  0.4150410000000  0.4774850000000 1.0
C      1  0.5412170000000  0.4200780000000  0.5153480000000 1.0
C      1  0.4839880000000  0.4562960000000  0.4178320000000 1.0
C      1  0.5203800000000  0.5365700000000  0.4176160000000 1.0
C      1  0.4871140000000  0.5381830000000  0.5848050000000 1.0
C      1  0.5870780000000  0.4806150000000  0.4586240000000 1.0
C      1  0.4602400000000  0.4150540000000  0.5119510000000 1.0
C      1  0.5183010000000  0.5389580000000  0.5861750000000 1.0
C      1  0.4154660000000  0.4834140000000  0.5409880000000 1.0
C      1  0.5776700000000  0.5187550000000  0.5395020000000 1.0
C      1  0.4209130000000  0.5154570000000  0.4589500000000 1.0
C      1  0.5409400000000  0.4138630000000  0.4795610000000 1.0
C      1  0.4667750000000  0.5796070000000  0.4908160000000 1.0
C      1  0.5399770000000  0.5861980000000  0.5122310000000 1.0
C      1  0.4843920000000  0.5377750000000  0.4227720000000 1.0
C      1  0.5202290000000  0.4586550000000  0.4127650000000 1.0
C      1  0.4785250000000  0.4598800000000  0.5882470000000 1.0
C      1  0.6066300000000  0.5273340000000  0.5153250000000 1.0
C      1  0.5162290000000  0.6119670000000  0.5276530000000 1.0
C      1  0.5273560000000  0.5129480000000  0.6142960000000 1.0
C      1  0.3922770000000  0.5269840000000  0.4833480000000 1.0
C      1  0.6128990000000  0.4750760000000  0.4859210000000 1.0
C      1  0.3875280000000  0.4724890000000  0.5119040000000 1.0
C      1  0.4842220000000  0.6083790000000  0.4729590000000 1.0
C      1  0.5160080000000  0.3858840000000  0.4725970000000 1.0
C      1  0.4849660000000  0.3893950000000  0.5235030000000 1.0
C      1  0.4730220000000  0.5146690000000  0.3933320000000 1.0
C      1  0.5260220000000  0.4856210000000  0.3866210000000 1.0
C      1  0.4729000000000  0.4863160000000  0.6160830000000 1.0
C      1  0.6092350000000  0.4743380000000  0.5141040000000 1.0
C      1  0.5156600000000  0.3919340000000  0.5261220000000 1.0
C      1  0.5260640000000  0.4838900000000  0.6101270000000 1.0
C      1  0.3899210000000  0.4741840000000  0.4835270000000 1.0
C      1  0.6082820000000  0.5275590000000  0.4842260000000 1.0
C      1  0.3889500000000  0.5255780000000  0.5138110000000 1.0
C      1  0.4877200000000  0.3870360000000  0.4711270000000 1.0
C      1  0.5124710000000  0.6158200000000  0.4713270000000 1.0
C      1  0.4870180000000  0.6138500000000  0.5278490000000 1.0
C      1  0.4727580000000  0.4835810000000  0.3916010000000 1.0
C      1  0.5253460000000  0.5137020000000  0.3885140000000 1.0
C      1  0.4732360000000  0.5154670000000  0.6127410000000 1.0
C      1  0.5264670000000  0.4258680000000  0.5612400000000 1.0
C      1  0.5582020000000  0.5281520000000  0.4288540000000 1.0
C      1  0.4278570000000  0.5535570000000  0.5327170000000 1.0
C      1  0.4735880000000  0.4271180000000  0.4420500000000 1.0
C      1  0.5341390000000  0.5728740000000  0.4459980000000 1.0
C      1  0.4708220000000  0.5725840000000  0.5577910000000 1.0
C      1  0.4393150000000  0.5309890000000  0.5786220000000 1.0
C      1  0.5566910000000  0.4672680000000  0.5729180000000 1.0
C      1  0.4352260000000  0.4659260000000  0.4192420000000 1.0
C      1  0.5802910000000  0.5656320000000  0.4672640000000 1.0
C      1  0.4275550000000  0.4435410000000  0.4643710000000 1.0
C      1  0.5691260000000  0.4454290000000  0.5263670000000 1.0
C      1  0.5327260000000  0.5756000000000  0.5597080000000 1.0
C      1  0.5586830000000  0.4664280000000  0.4229920000000 1.0
C      1  0.4210590000000  0.4454780000000  0.5340890000000 1.0
C      1  0.4718690000000  0.5686080000000  0.4419100000000 1.0
C      1  0.5348750000000  0.4233980000000  0.4408960000000 1.0
C      1  0.4643530000000  0.4229170000000  0.5606530000000 1.0
C      1  0.4414370000000  0.4690900000000  0.5762410000000 1.0
C      1  0.5547550000000  0.5295170000000  0.5695040000000 1.0
C      1  0.4381380000000  0.5274840000000  0.4266810000000 1.0
C      1  0.5765790000000  0.4422560000000  0.4655860000000 1.0
C      1  0.4293740000000  0.5578090000000  0.4714880000000 1.0
C      1  0.5762910000000  0.5642070000000  0.5288850000000 1.0
C      1  0.4216110000000  0.5413320000000  0.5369730000000 1.0
C      1  0.5352500000000  0.4158950000000  0.5572410000000 1.0
C      1  0.5481060000000  0.5358870000000  0.4221460000000 1.0
C      1  0.5904850000000  0.5599030000000  0.4598180000000 1.0
C      1  0.4197210000000  0.4537060000000  0.4585180000000 1.0
C      1  0.5762640000000  0.4572490000000  0.5325860000000 1.0
C      1  0.4671780000000  0.4196880000000  0.4537450000000 1.0
C      1  0.5407680000000  0.5815240000000  0.4553200000000 1.0
C      1  0.4633890000000  0.5797200000000  0.5478070000000 1.0
C      1  0.4444010000000  0.5387160000000  0.5889910000000 1.0
C      1  0.5513960000000  0.4598120000000  0.5832810000000 1.0
C      1  0.4407040000000  0.4587270000000  0.4087160000000 1.0
C      1  0.4160250000000  0.4592940000000  0.5365610000000 1.0
C      1  0.5402100000000  0.5862300000000  0.5550000000000 1.0
C      1  0.5481240000000  0.4596950000000  0.4160950000000 1.0
C      1  0.5835660000000  0.4527510000000  0.4588860000000 1.0
C      1  0.4189530000000  0.5550880000000  0.4628840000000 1.0
C      1  0.5858160000000  0.5589080000000  0.5373620000000 1.0
C      1  0.4633930000000  0.5782940000000  0.4471920000000 1.0
C      1  0.5415450000000  0.4168470000000  0.4516760000000 1.0
C      1  0.4580580000000  0.4144390000000  0.5514880000000 1.0
C      1  0.4509730000000  0.4615260000000  0.5837670000000 1.0
C      1  0.5452600000000  0.5371190000000  0.5774580000000 1.0
C      1  0.4434290000000  0.5362050000000  0.4173840000000 1.0
C      1  0.4671690000000  0.4403910000000  0.5746320000000 1.0
C      1  0.5747570000000  0.4693470000000  0.4387770000000 1.0
C      1  0.4499260000000  0.5640780000000  0.4774000000000 1.0
C      1  0.5317370000000  0.4389010000000  0.4246260000000 1.0
C      1  0.4784970000000  0.5488520000000  0.4311150000000 1.0
C      1  0.5291990000000  0.5557080000000  0.5692120000000 1.0
C      1  0.4271440000000  0.4722570000000  0.5574850000000 1.0
C      1  0.5695510000000  0.5245000000000  0.5511130000000 1.0
C      1  0.4284230000000  0.5212610000000  0.4470990000000 1.0
C      1  0.5566550000000  0.5736270000000  0.5239110000000 1.0
C      1  0.4336110000000  0.4255460000000  0.5337040000000 1.0
C      1  0.5607450000000  0.4261790000000  0.4683730000000 1.0
C      1  0.4746990000000  0.5559850000000  0.5733360000000 1.0
C      1  0.5737270000000  0.5225890000000  0.4459380000000 1.0
C      1  0.4463660000000  0.4289120000000  0.4673270000000 1.0
C      1  0.5313260000000  0.5554090000000  0.4314960000000 1.0
C      1  0.4784240000000  0.4448030000000  0.4262590000000 1.0
C      1  0.5209390000000  0.4463390000000  0.5682830000000 1.0
C      1  0.4300320000000  0.5275200000000  0.5576800000000 1.0
C      1  0.5670690000000  0.4713760000000  0.5525160000000 1.0
C      1  0.4272070000000  0.4685400000000  0.4401260000000 1.0
C      1  0.5520130000000  0.4292160000000  0.5211670000000 1.0
C      1  0.4432510000000  0.5704940000000  0.5311100000000 1.0
C      1  0.5596330000000  0.5745560000000  0.4698670000000 1.0
C      1  0.5323490000000  0.3951720000000  0.5086120000000 1.0
C      1  0.4692400000000  0.6064970000000  0.4917250000000 1.0
C      1  0.5071260000000  0.4687330000000  0.6096040000000 1.0
C      1  0.4918710000000  0.5308990000000  0.6111170000000 1.0
C      1  0.4915100000000  0.5300640000000  0.3975560000000 1.0
C      1  0.4911730000000  0.4674430000000  0.3939740000000 1.0
C      1  0.4704240000000  0.3927440000000  0.5036130000000 1.0
C      1  0.3958610000000  0.5088720000000  0.4677790000000 1.0
C      1  0.5324350000000  0.6123470000000  0.5098480000000 1.0
C      1  0.6012810000000  0.5083820000000  0.5302170000000 1.0
C      1  0.3914820000000  0.5070420000000  0.5294700000000 1.0
C      1  0.6060060000000  0.5093570000000  0.4681550000000 1.0
END
