TITL C-66626-9157-2 -2.43684971897243 1000000 -4020.17056964947 0 0 540 (C1) n - 1
REM
REM in /home/chem/mssmkc/work/GAP20/Larger-Clusters/Only-C240/New/BUILD-ONLY/Try2-C540
REM
REM
REM
REM
REM
REM ./C.cell (4d22446d3c8a03e2533cb19ef5564aa4)
REM
REM compiler GCC version 8.3.0
REM options -cpp -mtune=generic -march=x86-64 -g -O0
REM seed -1642947475 -473015185 1322923485 1846370430 851967873 -1835288452 1537469037 561375569 1065100254 -1175775242 -1257373496 348252988 -1966954969 528926953 163237078 635558725 24298369 -20543808 -140652255 -1848627426 -304221942 599327395 1827150119 -2030965851 -81009483 701259200 1901678282 -901250440 -428569923 939525915 680874095 -284545789 -458057061
REM
CELL 1.54180  100.00000  100.00000  100.00000   90.00000   90.00000   90.00000
LATT -1
SFAC C  
C      1  0.4633580000000  0.4008780000000  0.4670740000000 1.0
C      1  0.4068320000000  0.4669300000000  0.4635500000000 1.0
C      1  0.4648760000000  0.4646660000000  0.4031940000000 1.0
C      1  0.5375590000000  0.5994900000000  0.4676700000000 1.0
C      1  0.4627120000000  0.5977640000000  0.5324890000000 1.0
C      1  0.5351700000000  0.4089930000000  0.5341390000000 1.0
C      1  0.5941480000000  0.5336850000000  0.4629510000000 1.0
C      1  0.4021110000000  0.5314860000000  0.5374040000000 1.0
C      1  0.5968780000000  0.4675220000000  0.5352440000000 1.0
C      1  0.5345500000000  0.5353750000000  0.4036170000000 1.0
C      1  0.4676250000000  0.5370590000000  0.5986700000000 1.0
C      1  0.5327960000000  0.4636270000000  0.5948110000000 1.0
C      1  0.4633330000000  0.4047860000000  0.5331420000000 1.0
C      1  0.4085880000000  0.4652250000000  0.5353580000000 1.0
C      1  0.4665560000000  0.4640910000000  0.5975570000000 1.0
C      1  0.5351620000000  0.5932320000000  0.5336130000000 1.0
C      1  0.4652970000000  0.5913380000000  0.4663150000000 1.0
C      1  0.5363380000000  0.4037270000000  0.4677720000000 1.0
C      1  0.5926200000000  0.5341400000000  0.5347920000000 1.0
C      1  0.4034360000000  0.5331200000000  0.4644540000000 1.0
C      1  0.5996220000000  0.4678760000000  0.4622660000000 1.0
C      1  0.5338360000000  0.5356080000000  0.5928470000000 1.0
C      1  0.4680830000000  0.5369520000000  0.4054470000000 1.0
C      1  0.5311750000000  0.4631190000000  0.4086570000000 1.0
C      1  0.4113360000000  0.5334180000000  0.5593880000000 1.0
C      1  0.5360050000000  0.5580170000000  0.4126260000000 1.0
C      1  0.5568170000000  0.4140020000000  0.5220610000000 1.0
C      1  0.5885780000000  0.4662350000000  0.5580030000000 1.0
C      1  0.4113220000000  0.4785900000000  0.4421160000000 1.0
C      1  0.5892020000000  0.5220650000000  0.4415430000000 1.0
C      1  0.4628410000000  0.4421160000000  0.4117210000000 1.0
C      1  0.5212450000000  0.4419840000000  0.5904360000000 1.0
C      1  0.4655580000000  0.5590160000000  0.5893560000000 1.0
C      1  0.4407870000000  0.5882760000000  0.5342820000000 1.0
C      1  0.5599350000000  0.5912280000000  0.4659500000000 1.0
C      1  0.4406490000000  0.4090540000000  0.4656700000000 1.0
C      1  0.4119410000000  0.5345110000000  0.4417440000000 1.0
C      1  0.5216860000000  0.5575750000000  0.5887180000000 1.0
C      1  0.5584760000000  0.4130820000000  0.4659660000000 1.0
C      1  0.5903230000000  0.4659670000000  0.4403010000000 1.0
C      1  0.4132990000000  0.4772390000000  0.5571280000000 1.0
C      1  0.5887000000000  0.5221250000000  0.5567660000000 1.0
C      1  0.4653840000000  0.4413500000000  0.5891300000000 1.0
C      1  0.5192590000000  0.4418750000000  0.4142110000000 1.0
C      1  0.4800440000000  0.5582550000000  0.4102940000000 1.0
C      1  0.4434590000000  0.5865050000000  0.4781230000000 1.0
C      1  0.5573860000000  0.5896280000000  0.5218790000000 1.0
C      1  0.4416190000000  0.4089050000000  0.5215860000000 1.0
C      1  0.4711990000000  0.5867090000000  0.4542380000000 1.0
C      1  0.5922310000000  0.4564910000000  0.4664330000000 1.0
C      1  0.4553820000000  0.4683310000000  0.5896480000000 1.0
C      1  0.5320470000000  0.4110080000000  0.4563110000000 1.0
C      1  0.4685860000000  0.4090540000000  0.5454830000000 1.0
C      1  0.5293450000000  0.5879260000000  0.5454680000000 1.0
C      1  0.4112670000000  0.5442990000000  0.4687980000000 1.0
C      1  0.5876420000000  0.5462690000000  0.5292300000000 1.0
C      1  0.4132370000000  0.4530420000000  0.5296800000000 1.0
C      1  0.5458450000000  0.5299060000000  0.5876920000000 1.0
C      1  0.4555540000000  0.5318100000000  0.4093280000000 1.0
C      1  0.5438900000000  0.4682780000000  0.4119020000000 1.0
C      1  0.4666090000000  0.5906920000000  0.5441680000000 1.0
C      1  0.5892310000000  0.4561510000000  0.5310480000000 1.0
C      1  0.4535330000000  0.4690060000000  0.4106770000000 1.0
C      1  0.5295110000000  0.4134990000000  0.5463860000000 1.0
C      1  0.4672900000000  0.4085740000000  0.4557340000000 1.0
C      1  0.5339030000000  0.5919930000000  0.4561760000000 1.0
C      1  0.4091260000000  0.5431780000000  0.5334540000000 1.0
C      1  0.5901890000000  0.5460640000000  0.4683280000000 1.0
C      1  0.4106450000000  0.4544110000000  0.4686820000000 1.0
C      1  0.5458190000000  0.5311250000000  0.4113360000000 1.0
C      1  0.4560920000000  0.5329840000000  0.5914730000000 1.0
C      1  0.5451420000000  0.4689520000000  0.5906300000000 1.0
C      1  0.4032790000000  0.5288000000000  0.4513510000000 1.0
C      1  0.5299420000000  0.4503770000000  0.4149060000000 1.0
C      1  0.4503070000000  0.4102660000000  0.5319800000000 1.0
C      1  0.5995970000000  0.4719730000000  0.4491640000000 1.0
C      1  0.4146080000000  0.4668590000000  0.5482940000000 1.0
C      1  0.5869880000000  0.5323940000000  0.5478550000000 1.0
C      1  0.4693950000000  0.5498060000000  0.4112570000000 1.0
C      1  0.5320360000000  0.5486650000000  0.5871440000000 1.0
C      1  0.4709630000000  0.4510150000000  0.5978060000000 1.0
C      1  0.5483200000000  0.5877510000000  0.5320050000000 1.0
C      1  0.4523880000000  0.5852430000000  0.4678120000000 1.0
C      1  0.5493970000000  0.4039870000000  0.4718950000000 1.0
C      1  0.4021560000000  0.5273560000000  0.5504530000000 1.0
C      1  0.5316260000000  0.4506950000000  0.5891340000000 1.0
C      1  0.4502700000000  0.4004090000000  0.4714210000000 1.0
C      1  0.5971130000000  0.4719360000000  0.5482990000000 1.0
C      1  0.4125840000000  0.4681010000000  0.4506640000000 1.0
C      1  0.5881130000000  0.5325310000000  0.4501690000000 1.0
C      1  0.4715550000000  0.5501660000000  0.5986580000000 1.0
C      1  0.5303720000000  0.5485210000000  0.4037390000000 1.0
C      1  0.4690940000000  0.4515830000000  0.4032690000000 1.0
C      1  0.5506110000000  0.6000930000000  0.4718600000000 1.0
C      1  0.4496760000000  0.5975670000000  0.5283030000000 1.0
C      1  0.5480050000000  0.4152040000000  0.5324610000000 1.0
C      1  0.4967840000000  0.4205870000000  0.5822530000000 1.0
C      1  0.4297950000000  0.5844690000000  0.4933270000000 1.0
C      1  0.5807060000000  0.4972020000000  0.4206980000000 1.0
C      1  0.5062340000000  0.5711550000000  0.5868350000000 1.0
C      1  0.4955900000000  0.5713170000000  0.4129040000000 1.0
C      1  0.5039430000000  0.4280610000000  0.4155090000000 1.0
C      1  0.5781920000000  0.4218650000000  0.4972660000000 1.0
C      1  0.4281720000000  0.4108650000000  0.5062820000000 1.0
C      1  0.5714300000000  0.5884100000000  0.5068260000000 1.0
C      1  0.4192380000000  0.5032630000000  0.4209090000000 1.0
C      1  0.5874120000000  0.5069750000000  0.5706470000000 1.0
C      1  0.4151870000000  0.4925420000000  0.5706900000000 1.0
C      1  0.4931480000000  0.4205970000000  0.4196240000000 1.0
C      1  0.4219720000000  0.5784390000000  0.5028080000000 1.0
C      1  0.5815470000000  0.4975990000000  0.5787220000000 1.0
C      1  0.5048930000000  0.5788060000000  0.4195630000000 1.0
C      1  0.4967070000000  0.5788040000000  0.5805610000000 1.0
C      1  0.5060490000000  0.4284330000000  0.5885140000000 1.0
C      1  0.5703670000000  0.4159350000000  0.5067790000000 1.0
C      1  0.4204180000000  0.4171860000000  0.4969500000000 1.0
C      1  0.5795420000000  0.5825500000000  0.4974400000000 1.0
C      1  0.4211200000000  0.5020910000000  0.5784950000000 1.0
C      1  0.5869570000000  0.5067040000000  0.4282770000000 1.0
C      1  0.4131640000000  0.4938840000000  0.4287490000000 1.0
C      1  0.4699540000000  0.4873610000000  0.3959300000000 1.0
C      1  0.4867730000000  0.3947950000000  0.4713410000000 1.0
C      1  0.3977510000000  0.4708420000000  0.4859600000000 1.0
C      1  0.5297560000000  0.5123990000000  0.3966440000000 1.0
C      1  0.4719890000000  0.5138570000000  0.6051960000000 1.0
C      1  0.5286980000000  0.4860940000000  0.6036250000000 1.0
C      1  0.5139500000000  0.6049880000000  0.4716760000000 1.0
C      1  0.4859780000000  0.6044340000000  0.5283790000000 1.0
C      1  0.5136280000000  0.3982850000000  0.5300420000000 1.0
C      1  0.6033760000000  0.5295340000000  0.4852920000000 1.0
C      1  0.3956680000000  0.5272640000000  0.5141530000000 1.0
C      1  0.6042660000000  0.4718670000000  0.5124130000000 1.0
C      1  0.4709440000000  0.4870440000000  0.6047070000000 1.0
C      1  0.4860190000000  0.3965110000000  0.5290480000000 1.0
C      1  0.3984340000000  0.4694750000000  0.5135840000000 1.0
C      1  0.5297710000000  0.5137380000000  0.6027570000000 1.0
C      1  0.4719100000000  0.5145240000000  0.3965520000000 1.0
C      1  0.5276180000000  0.4852460000000  0.3986540000000 1.0
C      1  0.5132120000000  0.6028110000000  0.5293830000000 1.0
C      1  0.4868110000000  0.6019370000000  0.4706430000000 1.0
C      1  0.5135550000000  0.3961240000000  0.4720640000000 1.0
C      1  0.6025040000000  0.5301700000000  0.5129280000000 1.0
C      1  0.3961940000000  0.5285400000000  0.4873530000000 1.0
C      1  0.6058580000000  0.4722810000000  0.4856220000000 1.0
C      1  0.5175340000000  0.4290570000000  0.4212690000000 1.0
C      1  0.4290480000000  0.4160620000000  0.5196990000000 1.0
C      1  0.4194840000000  0.5174560000000  0.4238790000000 1.0
C      1  0.4819760000000  0.5707110000000  0.4176050000000 1.0
C      1  0.5195680000000  0.5702000000000  0.5815520000000 1.0
C      1  0.4826110000000  0.4235760000000  0.5817530000000 1.0
C      1  0.5701810000000  0.5827030000000  0.5199660000000 1.0
C      1  0.4310430000000  0.5790180000000  0.4800680000000 1.0
C      1  0.5755430000000  0.4217520000000  0.4830190000000 1.0
C      1  0.5808790000000  0.4829730000000  0.4235310000000 1.0
C      1  0.4206950000000  0.4792930000000  0.5695820000000 1.0
C      1  0.5819210000000  0.5202360000000  0.5696370000000 1.0
C      1  0.5194670000000  0.4293700000000  0.5833290000000 1.0
C      1  0.4233920000000  0.4174880000000  0.4827670000000 1.0
C      1  0.4208640000000  0.5163580000000  0.5759240000000 1.0
C      1  0.4825140000000  0.5758710000000  0.5802010000000 1.0
C      1  0.5190200000000  0.5756720000000  0.4203430000000 1.0
C      1  0.4795670000000  0.4249960000000  0.4199180000000 1.0
C      1  0.5768820000000  0.5824880000000  0.4831890000000 1.0
C      1  0.4244320000000  0.5786570000000  0.5170970000000 1.0
C      1  0.5692870000000  0.4213890000000  0.5200540000000 1.0
C      1  0.5811360000000  0.4834050000000  0.5757940000000 1.0
C      1  0.4183840000000  0.4804700000000  0.4295380000000 1.0
C      1  0.5815860000000  0.5200430000000  0.4293100000000 1.0
C      1  0.4322960000000  0.4748850000000  0.5759100000000 1.0
C      1  0.4773040000000  0.5763910000000  0.4294560000000 1.0
C      1  0.5811190000000  0.4322820000000  0.4750390000000 1.0
C      1  0.5701400000000  0.5243500000000  0.5758530000000 1.0
C      1  0.4302760000000  0.5250580000000  0.4183480000000 1.0
C      1  0.5698910000000  0.4751120000000  0.4187420000000 1.0
C      1  0.5237700000000  0.4228360000000  0.4321760000000 1.0
C      1  0.4752290000000  0.4181410000000  0.5707500000000 1.0
C      1  0.5237260000000  0.5762270000000  0.5697280000000 1.0
C      1  0.4248300000000  0.5673970000000  0.4755680000000 1.0
C      1  0.5762010000000  0.5707830000000  0.5239430000000 1.0
C      1  0.4234380000000  0.4280850000000  0.5240410000000 1.0
C      1  0.4300390000000  0.4758960000000  0.4234050000000 1.0
C      1  0.4747700000000  0.5809060000000  0.5691650000000 1.0
C      1  0.5756270000000  0.4329770000000  0.5245030000000 1.0
C      1  0.5696730000000  0.5244960000000  0.4235950000000 1.0
C      1  0.4314680000000  0.5244040000000  0.5812880000000 1.0
C      1  0.5702860000000  0.4758770000000  0.5813650000000 1.0
C      1  0.5238480000000  0.4237200000000  0.5713370000000 1.0
C      1  0.4732560000000  0.4202960000000  0.4318300000000 1.0
C      1  0.5264010000000  0.5810070000000  0.4314830000000 1.0
C      1  0.4191070000000  0.5679680000000  0.5250660000000 1.0
C      1  0.5821260000000  0.5715840000000  0.4754780000000 1.0
C      1  0.4183540000000  0.4286350000000  0.4752620000000 1.0
C      1  0.5986050000000  0.4849910000000  0.4429310000000 1.0
C      1  0.4838640000000  0.4443490000000  0.5980420000000 1.0
C      1  0.4496120000000  0.5975730000000  0.5021090000000 1.0
C      1  0.4032180000000  0.5159300000000  0.4446240000000 1.0
C      1  0.5985730000000  0.4980980000000  0.5495620000000 1.0
C      1  0.4022370000000  0.5011250000000  0.5506640000000 1.0
C      1  0.4977430000000  0.5507140000000  0.5991880000000 1.0
C      1  0.5043210000000  0.5502910000000  0.4013700000000 1.0
C      1  0.4954490000000  0.4493870000000  0.4032180000000 1.0
C      1  0.5556900000000  0.4046330000000  0.4849010000000 1.0
C      1  0.4492420000000  0.3992310000000  0.4975430000000 1.0
C      1  0.5507850000000  0.6003740000000  0.4979970000000 1.0
C      1  0.5971600000000  0.4848740000000  0.5548730000000 1.0
C      1  0.4819100000000  0.4447470000000  0.4035630000000 1.0
C      1  0.4437410000000  0.5964010000000  0.5151770000000 1.0
C      1  0.4033240000000  0.5142520000000  0.5564440000000 1.0
C      1  0.5999280000000  0.4981480000000  0.4485180000000 1.0
C      1  0.4016230000000  0.5026800000000  0.4497640000000 1.0
C      1  0.5175590000000  0.5553110000000  0.4034980000000 1.0
C      1  0.4845700000000  0.5563640000000  0.5978120000000 1.0
C      1  0.4970770000000  0.4495460000000  0.5998150000000 1.0
C      1  0.5502020000000  0.4032640000000  0.4980960000000 1.0
C      1  0.4437920000000  0.4006700000000  0.4843840000000 1.0
C      1  0.5567100000000  0.5993830000000  0.4849440000000 1.0
C      1  0.4729960000000  0.3947940000000  0.4748890000000 1.0
C      1  0.3994660000000  0.4751480000000  0.4719980000000 1.0
C      1  0.4731630000000  0.4736080000000  0.3967900000000 1.0
C      1  0.5276840000000  0.6052180000000  0.4754340000000 1.0
C      1  0.4722750000000  0.6039070000000  0.5246320000000 1.0
C      1  0.5274790000000  0.4008300000000  0.5258870000000 1.0
C      1  0.6017500000000  0.5254810000000  0.4712250000000 1.0
C      1  0.3961500000000  0.5235230000000  0.5278380000000 1.0
C      1  0.6033130000000  0.4755430000000  0.5260200000000 1.0
C      1  0.5265760000000  0.5262130000000  0.3969320000000 1.0
C      1  0.4756050000000  0.5275800000000  0.6047630000000 1.0
C      1  0.5245210000000  0.4720660000000  0.6020890000000 1.0
C      1  0.4719330000000  0.3976600000000  0.5248960000000 1.0
C      1  0.4005370000000  0.4734820000000  0.5275650000000 1.0
C      1  0.4744270000000  0.4733350000000  0.6041640000000 1.0
C      1  0.5272490000000  0.6011370000000  0.5254200000000 1.0
C      1  0.4728880000000  0.5994970000000  0.4746150000000 1.0
C      1  0.5271680000000  0.3972090000000  0.4757480000000 1.0
C      1  0.6004580000000  0.5259170000000  0.5268140000000 1.0
C      1  0.3968280000000  0.5251620000000  0.4736210000000 1.0
C      1  0.6057450000000  0.4757540000000  0.4718140000000 1.0
C      1  0.5256660000000  0.5277110000000  0.6008290000000 1.0
C      1  0.4763870000000  0.5284090000000  0.3983340000000 1.0
C      1  0.5230820000000  0.4714470000000  0.4010110000000 1.0
C      1  0.5144670000000  0.5854490000000  0.5638370000000 1.0
C      1  0.5856700000000  0.5651090000000  0.5147620000000 1.0
C      1  0.5644860000000  0.5151860000000  0.5853570000000 1.0
C      1  0.4825270000000  0.4080450000000  0.5637620000000 1.0
C      1  0.5163450000000  0.4122340000000  0.4386670000000 1.0
C      1  0.4864390000000  0.5853410000000  0.4358520000000 1.0
C      1  0.4144290000000  0.4343110000000  0.5147990000000 1.0
C      1  0.5913020000000  0.4391650000000  0.4821260000000 1.0
C      1  0.4154060000000  0.5616950000000  0.4848030000000 1.0
C      1  0.4378990000000  0.4842040000000  0.5853090000000 1.0
C      1  0.5624150000000  0.4820950000000  0.4088710000000 1.0
C      1  0.4371000000000  0.5179810000000  0.4080120000000 1.0
C      1  0.5189520000000  0.5909670000000  0.4383920000000 1.0
C      1  0.5920810000000  0.5642730000000  0.4825960000000 1.0
C      1  0.5635510000000  0.5150900000000  0.4146260000000 1.0
C      1  0.4825820000000  0.4117890000000  0.4382610000000 1.0
C      1  0.5147160000000  0.4145250000000  0.5652010000000 1.0
C      1  0.4819120000000  0.5908440000000  0.5619430000000 1.0
C      1  0.4084740000000  0.4359610000000  0.4824820000000 1.0
C      1  0.5850810000000  0.4385740000000  0.5152280000000 1.0
C      1  0.4091880000000  0.5607960000000  0.5179110000000 1.0
C      1  0.4359770000000  0.4851610000000  0.4141700000000 1.0
C      1  0.5633930000000  0.4830200000000  0.5916430000000 1.0
C      1  0.4385890000000  0.5173410000000  0.5913080000000 1.0
C      1  0.5886330000000  0.5730070000000  0.5031500000000 1.0
C      1  0.5723050000000  0.5034430000000  0.5880700000000 1.0
C      1  0.5024890000000  0.5880290000000  0.5712460000000 1.0
C      1  0.4114540000000  0.4267620000000  0.5028970000000 1.0
C      1  0.5967810000000  0.4345220000000  0.4940410000000 1.0
C      1  0.4129040000000  0.5690510000000  0.4969210000000 1.0
C      1  0.4304610000000  0.4962990000000  0.5876770000000 1.0
C      1  0.5669550000000  0.4937370000000  0.4028260000000 1.0
C      1  0.4322820000000  0.5063390000000  0.4023700000000 1.0
C      1  0.4940280000000  0.4022210000000  0.5686530000000 1.0
C      1  0.5059330000000  0.4054980000000  0.4329190000000 1.0
C      1  0.4986320000000  0.5880040000000  0.4287050000000 1.0
C      1  0.5979780000000  0.5689440000000  0.4942100000000 1.0
C      1  0.5709420000000  0.5029730000000  0.4118990000000 1.0
C      1  0.5075760000000  0.5969530000000  0.4332390000000 1.0
C      1  0.4023590000000  0.4311870000000  0.4939220000000 1.0
C      1  0.5874430000000  0.4311020000000  0.5031490000000 1.0
C      1  0.4035970000000  0.5654200000000  0.5060150000000 1.0
C      1  0.4285300000000  0.4972940000000  0.4116880000000 1.0
C      1  0.5683370000000  0.4945200000000  0.5974410000000 1.0
C      1  0.4339780000000  0.5054660000000  0.5969500000000 1.0
C      1  0.4942520000000  0.4107610000000  0.4298860000000 1.0
C      1  0.5028810000000  0.4115100000000  0.5728520000000 1.0
C      1  0.4933670000000  0.5969790000000  0.5668790000000 1.0
C      1  0.5607210000000  0.4337290000000  0.5441140000000 1.0
C      1  0.4311400000000  0.5439390000000  0.5651970000000 1.0
C      1  0.5457440000000  0.5645950000000  0.4326300000000 1.0
C      1  0.4350700000000  0.5683610000000  0.5446980000000 1.0
C      1  0.5657280000000  0.5712370000000  0.4558350000000 1.0
C      1  0.4349380000000  0.4292760000000  0.4558100000000 1.0
C      1  0.5687800000000  0.4565730000000  0.5644140000000 1.0
C      1  0.4304750000000  0.4559010000000  0.4380120000000 1.0
C      1  0.5695560000000  0.5445010000000  0.4381380000000 1.0
C      1  0.4538150000000  0.4360670000000  0.4325020000000 1.0
C      1  0.5436920000000  0.4388360000000  0.5705500000000 1.0
C      1  0.4554040000000  0.5646100000000  0.5692700000000 1.0
C      1  0.5646880000000  0.4327520000000  0.4556460000000 1.0
C      1  0.4318320000000  0.5441670000000  0.4354880000000 1.0
C      1  0.5433890000000  0.5610410000000  0.5683060000000 1.0
C      1  0.4398300000000  0.5667340000000  0.4560150000000 1.0
C      1  0.5607050000000  0.5689420000000  0.5433370000000 1.0
C      1  0.4383150000000  0.4287910000000  0.5440530000000 1.0
C      1  0.5700660000000  0.4557730000000  0.4354390000000 1.0
C      1  0.4331070000000  0.4552310000000  0.5610760000000 1.0
C      1  0.5683860000000  0.5438330000000  0.5604700000000 1.0
C      1  0.4558800000000  0.4350080000000  0.5691970000000 1.0
C      1  0.5433000000000  0.4380580000000  0.4323030000000 1.0
C      1  0.4571340000000  0.5617100000000  0.4296930000000 1.0
C      1  0.4287500000000  0.5611840000000  0.4629490000000 1.0
C      1  0.5641840000000  0.4628320000000  0.4249660000000 1.0
C      1  0.4629880000000  0.4238430000000  0.5646260000000 1.0
C      1  0.5759220000000  0.4379830000000  0.4623200000000 1.0
C      1  0.4281290000000  0.4344750000000  0.5363450000000 1.0
C      1  0.5715780000000  0.5639820000000  0.5359900000000 1.0
C      1  0.4364110000000  0.5372490000000  0.4241960000000 1.0
C      1  0.5634200000000  0.5365060000000  0.5713720000000 1.0
C      1  0.4385980000000  0.4622750000000  0.5721190000000 1.0
C      1  0.5359900000000  0.5718120000000  0.5631880000000 1.0
C      1  0.4648230000000  0.5718020000000  0.4355690000000 1.0
C      1  0.5365040000000  0.4273240000000  0.4381880000000 1.0
C      1  0.4243860000000  0.5624120000000  0.5378450000000 1.0
C      1  0.5642070000000  0.4636110000000  0.5756320000000 1.0
C      1  0.4610220000000  0.4250660000000  0.4378670000000 1.0
C      1  0.5717770000000  0.4392620000000  0.5371070000000 1.0
C      1  0.4242940000000  0.4345900000000  0.4630150000000 1.0
C      1  0.5762950000000  0.5658120000000  0.4630770000000 1.0
C      1  0.4370080000000  0.5371740000000  0.5759780000000 1.0
C      1  0.5635280000000  0.5371400000000  0.4277100000000 1.0
C      1  0.4361500000000  0.4632350000000  0.4274140000000 1.0
C      1  0.5388810000000  0.5758610000000  0.4376400000000 1.0
C      1  0.4621970000000  0.5753850000000  0.5634000000000 1.0
C      1  0.5360760000000  0.4285450000000  0.5649030000000 1.0
C      1  0.5129880000000  0.5281300000000  0.3929200000000 1.0
C      1  0.5291830000000  0.3960060000000  0.5122710000000 1.0
C      1  0.3927990000000  0.5097430000000  0.5291260000000 1.0
C      1  0.4869240000000  0.4714120000000  0.3936250000000 1.0
C      1  0.5109110000000  0.4709330000000  0.6066030000000 1.0
C      1  0.4893330000000  0.5289770000000  0.6082860000000 1.0
C      1  0.4710560000000  0.6072670000000  0.5108910000000 1.0
C      1  0.5287460000000  0.6087690000000  0.4891340000000 1.0
C      1  0.4714370000000  0.3910610000000  0.4885950000000 1.0
C      1  0.6069490000000  0.4893350000000  0.5277120000000 1.0
C      1  0.3948230000000  0.4887060000000  0.4709620000000 1.0
C      1  0.6066790000000  0.5120530000000  0.4699230000000 1.0
C      1  0.5120910000000  0.5293810000000  0.6057880000000 1.0
C      1  0.5287840000000  0.3936630000000  0.4894820000000 1.0
C      1  0.3929950000000  0.5114750000000  0.4716990000000 1.0
C      1  0.4881030000000  0.4715300000000  0.6081210000000 1.0
C      1  0.5095620000000  0.4703900000000  0.3962040000000 1.0
C      1  0.4901790000000  0.5293070000000  0.3941400000000 1.0
C      1  0.4709000000000  0.6045000000000  0.4881660000000 1.0
C      1  0.5290360000000  0.6062050000000  0.5118680000000 1.0
C      1  0.4708880000000  0.3930170000000  0.5113340000000 1.0
C      1  0.6093100000000  0.4894420000000  0.4703170000000 1.0
C      1  0.3955370000000  0.4870190000000  0.5293150000000 1.0
C      1  0.6051500000000  0.5122230000000  0.5282900000000 1.0
C      1  0.5798580000000  0.4504840000000  0.5408910000000 1.0
C      1  0.4491990000000  0.5420000000000  0.5824680000000 1.0
C      1  0.5432570000000  0.5832310000000  0.4495310000000 1.0
C      1  0.4180040000000  0.5501110000000  0.5425570000000 1.0
C      1  0.5815160000000  0.5530340000000  0.4594300000000 1.0
C      1  0.4190780000000  0.4474260000000  0.4595740000000 1.0
C      1  0.5518900000000  0.4599970000000  0.5818530000000 1.0
C      1  0.4476610000000  0.4593120000000  0.4200650000000 1.0
C      1  0.5517720000000  0.5409570000000  0.4205830000000 1.0
C      1  0.4574730000000  0.4174530000000  0.4497130000000 1.0
C      1  0.5388390000000  0.4226800000000  0.5525030000000 1.0
C      1  0.4575410000000  0.5817040000000  0.5510340000000 1.0
C      1  0.5830980000000  0.4497600000000  0.4575020000000 1.0
C      1  0.4488170000000  0.5407900000000  0.4180870000000 1.0
C      1  0.5387860000000  0.5788050000000  0.5513760000000 1.0
C      1  0.4206740000000  0.5500190000000  0.4590340000000 1.0
C      1  0.5784600000000  0.5520830000000  0.5386790000000 1.0
C      1  0.4222570000000  0.4468720000000  0.5391010000000 1.0
C      1  0.5511000000000  0.4593310000000  0.4202780000000 1.0
C      1  0.4497680000000  0.4584910000000  0.5802620000000 1.0
C      1  0.5516210000000  0.5392970000000  0.5784150000000 1.0
C      1  0.4594890000000  0.4176430000000  0.5522680000000 1.0
C      1  0.5412290000000  0.4203310000000  0.4498430000000 1.0
C      1  0.4619010000000  0.5776440000000  0.4479440000000 1.0
C      1  0.4095660000000  0.5487940000000  0.4827480000000 1.0
C      1  0.5485880000000  0.4807300000000  0.4076460000000 1.0
C      1  0.4813160000000  0.4058520000000  0.5500120000000 1.0
C      1  0.5943440000000  0.4525090000000  0.4799940000000 1.0
C      1  0.4099340000000  0.4479880000000  0.5165960000000 1.0
C      1  0.5906880000000  0.5515350000000  0.5162460000000 1.0
C      1  0.4508440000000  0.5192330000000  0.4057350000000 1.0
C      1  0.5510090000000  0.5168380000000  0.5906350000000 1.0
C      1  0.4507820000000  0.4822560000000  0.5912450000000 1.0
C      1  0.5161680000000  0.5906420000000  0.5504320000000 1.0
C      1  0.4843470000000  0.5900660000000  0.4493720000000 1.0
C      1  0.5184630000000  0.4086710000000  0.4520960000000 1.0
C      1  0.4066990000000  0.5473190000000  0.5199520000000 1.0
C      1  0.5496780000000  0.4816310000000  0.5940560000000 1.0
C      1  0.4812980000000  0.4071480000000  0.4513000000000 1.0
C      1  0.5910140000000  0.4514820000000  0.5171720000000 1.0
C      1  0.4068820000000  0.4497870000000  0.4812640000000 1.0
C      1  0.5939390000000  0.5505260000000  0.4809900000000 1.0
C      1  0.4520300000000  0.5194620000000  0.5939020000000 1.0
C      1  0.5503390000000  0.5171530000000  0.4095100000000 1.0
C      1  0.4490840000000  0.4829660000000  0.4086960000000 1.0
C      1  0.5204170000000  0.5937410000000  0.4519110000000 1.0
C      1  0.4800420000000  0.5932380000000  0.5484020000000 1.0
C      1  0.5165310000000  0.4099240000000  0.5515340000000 1.0
C      1  0.5976330000000  0.5421330000000  0.5065420000000 1.0
C      1  0.5415810000000  0.5072320000000  0.5977360000000 1.0
C      1  0.5064920000000  0.5975610000000  0.5410560000000 1.0
C      1  0.4032360000000  0.4576680000000  0.5069950000000 1.0
C      1  0.5996490000000  0.4607720000000  0.4911250000000 1.0
C      1  0.4022750000000  0.5399540000000  0.4933660000000 1.0
C      1  0.4595210000000  0.4929550000000  0.5985340000000 1.0
C      1  0.5398350000000  0.4912640000000  0.4029510000000 1.0
C      1  0.4596060000000  0.5086530000000  0.4010830000000 1.0
C      1  0.4918780000000  0.4014120000000  0.5410910000000 1.0
C      1  0.5078020000000  0.4019170000000  0.4604240000000 1.0
C      1  0.4937560000000  0.5971120000000  0.4589580000000 1.0
C      1  0.5986210000000  0.5414770000000  0.4913600000000 1.0
C      1  0.5411120000000  0.5065310000000  0.4027810000000 1.0
C      1  0.5090050000000  0.5988450000000  0.4599560000000 1.0
C      1  0.4023160000000  0.4586860000000  0.4918090000000 1.0
C      1  0.5984570000000  0.4602200000000  0.5065190000000 1.0
C      1  0.4014750000000  0.5390460000000  0.5087660000000 1.0
C      1  0.4583910000000  0.4933960000000  0.4015940000000 1.0
C      1  0.5407460000000  0.4920560000000  0.5988300000000 1.0
C      1  0.4603170000000  0.5083610000000  0.5992760000000 1.0
C      1  0.4924400000000  0.4011930000000  0.4599690000000 1.0
C      1  0.5070350000000  0.4028800000000  0.5419380000000 1.0
C      1  0.4911960000000  0.5986540000000  0.5401520000000 1.0
C      1  0.4781670000000  0.5661260000000  0.5888810000000 1.0
C      1  0.5669150000000  0.5908900000000  0.4786670000000 1.0
C      1  0.5889890000000  0.4787800000000  0.5654110000000 1.0
C      1  0.5073140000000  0.4411230000000  0.5953430000000 1.0
C      1  0.4750990000000  0.4344230000000  0.4113760000000 1.0
C      1  0.5235950000000  0.5655610000000  0.4121340000000 1.0
C      1  0.4333970000000  0.4090730000000  0.4782530000000 1.0
C      1  0.5580030000000  0.4086800000000  0.5082580000000 1.0
C      1  0.4339710000000  0.5874920000000  0.5215210000000 1.0
C      1  0.4121090000000  0.5206850000000  0.5662670000000 1.0
C      1  0.5944250000000  0.5082220000000  0.4405590000000 1.0
C      1  0.4063210000000  0.4925180000000  0.4413970000000 1.0
C      1  0.4941430000000  0.5587990000000  0.4058000000000 1.0
C      1  0.5587310000000  0.5952090000000  0.5082050000000 1.0
C      1  0.5896830000000  0.4786040000000  0.4331950000000 1.0
C      1  0.5053450000000  0.4410530000000  0.4089260000000 1.0
C      1  0.4778940000000  0.4338770000000  0.5896810000000 1.0
C      1  0.5078540000000  0.5586880000000  0.5939540000000 1.0
C      1  0.4408180000000  0.4039410000000  0.5076790000000 1.0
C      1  0.5656450000000  0.4133190000000  0.4785900000000 1.0
C      1  0.4420760000000  0.5918870000000  0.4919000000000 1.0
C      1  0.4115380000000  0.5220320000000  0.4342120000000 1.0
C      1  0.5939750000000  0.5083200000000  0.5578450000000 1.0
C      1  0.4078760000000  0.4910070000000  0.5583560000000 1.0
C      1  0.4220180000000  0.5436370000000  0.4454300000000 1.0
C      1  0.5421800000000  0.4481140000000  0.4233440000000 1.0
C      1  0.4481220000000  0.4195780000000  0.5434930000000 1.0
C      1  0.5807340000000  0.4563450000000  0.4443510000000 1.0
C      1  0.4242390000000  0.4557620000000  0.5506270000000 1.0
C      1  0.5771980000000  0.5432790000000  0.5501510000000 1.0
C      1  0.4577270000000  0.5520130000000  0.4203650000000 1.0
C      1  0.5428600000000  0.5508180000000  0.5772280000000 1.0
C      1  0.4562790000000  0.4449520000000  0.5790020000000 1.0
C      1  0.5504240000000  0.5777770000000  0.5427670000000 1.0
C      1  0.4502490000000  0.5756250000000  0.4566760000000 1.0
C      1  0.5548210000000  0.4226920000000  0.4563310000000 1.0
C      1  0.4207350000000  0.5433500000000  0.5557780000000 1.0
C      1  0.5431310000000  0.4486170000000  0.5798010000000 1.0
C      1  0.4442890000000  0.4190310000000  0.4563660000000 1.0
C      1  0.5785410000000  0.4570140000000  0.5544280000000 1.0
C      1  0.4216000000000  0.4563600000000  0.4482270000000 1.0
C      1  0.5788140000000  0.5441420000000  0.4480600000000 1.0
C      1  0.4558760000000  0.5552710000000  0.5797600000000 1.0
C      1  0.5452150000000  0.5546080000000  0.4226440000000 1.0
C      1  0.4541080000000  0.4456900000000  0.4221570000000 1.0
C      1  0.5563690000000  0.5814730000000  0.4562880000000 1.0
C      1  0.4443980000000  0.5788590000000  0.5441910000000 1.0
C      1  0.5503070000000  0.4248050000000  0.5435760000000 1.0
C      1  0.4939180000000  0.5161850000000  0.3896590000000 1.0
C      1  0.5161540000000  0.3893500000000  0.4942990000000 1.0
C      1  0.3905070000000  0.4910990000000  0.5164740000000 1.0
C      1  0.5060350000000  0.4832840000000  0.3909010000000 1.0
C      1  0.4930450000000  0.4842390000000  0.6120410000000 1.0
C      1  0.5080920000000  0.5164690000000  0.6106890000000 1.0
C      1  0.4835440000000  0.6098050000000  0.4923150000000 1.0
C      1  0.5161180000000  0.6107870000000  0.5076850000000 1.0
C      1  0.4841230000000  0.3888620000000  0.5074270000000 1.0
C      1  0.6101020000000  0.5082640000000  0.5154150000000 1.0
C      1  0.3890450000000  0.5064110000000  0.4843500000000 1.0
C      1  0.6127820000000  0.4943090000000  0.4832650000000 1.0
C      1  0.4941450000000  0.5161210000000  0.6120140000000 1.0
C      1  0.5164720000000  0.3906150000000  0.5082770000000 1.0
C      1  0.3901510000000  0.4924750000000  0.4840530000000 1.0
C      1  0.5070010000000  0.4840380000000  0.6111070000000 1.0
C      1  0.4921630000000  0.4840110000000  0.3895580000000 1.0
C      1  0.5078750000000  0.5153910000000  0.3891090000000 1.0
C      1  0.4839730000000  0.6111050000000  0.5062580000000 1.0
C      1  0.5156280000000  0.6119440000000  0.4937360000000 1.0
C      1  0.4843570000000  0.3877110000000  0.4935090000000 1.0
C      1  0.6113260000000  0.5081470000000  0.4830170000000 1.0
C      1  0.3890650000000  0.5050300000000  0.5162410000000 1.0
C      1  0.6111090000000  0.4942310000000  0.5150960000000 1.0
C      1  0.5181760000000  0.5057610000000  0.3911630000000 1.0
C      1  0.5071070000000  0.3918900000000  0.5188880000000 1.0
C      1  0.3902850000000  0.5161050000000  0.5072430000000 1.0
C      1  0.4817550000000  0.4937260000000  0.3906120000000 1.0
C      1  0.5178950000000  0.4932390000000  0.6092880000000 1.0
C      1  0.4831620000000  0.5070420000000  0.6106750000000 1.0
C      1  0.4931200000000  0.6096800000000  0.5173050000000 1.0
C      1  0.5065530000000  0.6099350000000  0.4827020000000 1.0
C      1  0.4935340000000  0.3894770000000  0.4828270000000 1.0
C      1  0.6101960000000  0.4833680000000  0.5059790000000 1.0
C      1  0.3919770000000  0.4815360000000  0.4931700000000 1.0
C      1  0.6091970000000  0.5187550000000  0.4923420000000 1.0
C      1  0.5186250000000  0.5070650000000  0.6089760000000 1.0
C      1  0.5070420000000  0.3902110000000  0.4833070000000 1.0
C      1  0.3903910000000  0.5169480000000  0.4937200000000 1.0
C      1  0.4824460000000  0.4935150000000  0.6105670000000 1.0
C      1  0.5170900000000  0.4921380000000  0.3922330000000 1.0
C      1  0.4827480000000  0.5073850000000  0.3909160000000 1.0
C      1  0.4929430000000  0.6085710000000  0.4818540000000 1.0
C      1  0.5067770000000  0.6090950000000  0.5181570000000 1.0
C      1  0.4933000000000  0.3910470000000  0.5182520000000 1.0
C      1  0.6111000000000  0.4835490000000  0.4924730000000 1.0
C      1  0.3922230000000  0.4806680000000  0.5069910000000 1.0
C      1  0.6086780000000  0.5190540000000  0.5061710000000 1.0
C      1  0.4990100000000  0.4627640000000  0.6050640000000 1.0
C      1  0.5022290000000  0.5371650000000  0.3958900000000 1.0
C      1  0.5372860000000  0.3975010000000  0.5003250000000 1.0
C      1  0.4625980000000  0.6033230000000  0.4999960000000 1.0
C      1  0.6036620000000  0.5002320000000  0.5363690000000 1.0
C      1  0.5001270000000  0.5376200000000  0.6046500000000 1.0
C      1  0.5374440000000  0.6053830000000  0.5000600000000 1.0
C      1  0.3966240000000  0.4988870000000  0.5376310000000 1.0
C      1  0.6056280000000  0.5002340000000  0.4616040000000 1.0
C      1  0.3962700000000  0.5006570000000  0.4629020000000 1.0
C      1  0.4975780000000  0.4625120000000  0.3975870000000 1.0
C      1  0.4625920000000  0.3941410000000  0.4994780000000 1.0
END
