TITL C-66629-8849-6 0.00948021745229233 1000000 -3786.38923041257 0 0 540 (Th) n - 1
REM
REM in /home/chem/mssmkc/work/GAP20/Larger-Clusters/Only-C240/New/BUILD-ONLY/Try2-C540
REM
REM
REM
REM
REM
REM ./C.cell (4d22446d3c8a03e2533cb19ef5564aa4)
REM
REM compiler GCC version 8.3.0
REM options -cpp -mtune=generic -march=x86-64 -g -O0
REM seed 919067481 -943323152 -419798541 -170254380 450363154 -664116166 1283595481 -513842354 -1163202325 -131647451 -1556820857 -2030349559 738185616 198718111 -809857147 989048472 -1171278729 728728921 294480636 -1216713510 -956607643 -2029826988 11976078 1663157961 -717977655 -1027816682 1842297307 243233441 1542269302 175723485 -147494067 -1163529023 -2117538662
REM
CELL 1.54180  100.00000  100.00000  100.00000   90.00000   90.00000   90.00000
LATT -1
SFAC C  
C      1  0.5073680000000  0.3834910000000  0.5172460000000 1.0
C      1  0.3834910000000  0.5172450000000  0.5073660000000 1.0
C      1  0.5172460000000  0.5073670000000  0.3834910000000 1.0
C      1  0.4926320000000  0.6165090000000  0.5172450000000 1.0
C      1  0.5073670000000  0.6165090000000  0.4827540000000 1.0
C      1  0.4926330000000  0.3834910000000  0.4827550000000 1.0
C      1  0.6165090000000  0.4827550000000  0.5073680000000 1.0
C      1  0.3834910000000  0.4827540000000  0.4926320000000 1.0
C      1  0.6165090000000  0.5172460000000  0.4926330000000 1.0
C      1  0.4827550000000  0.4926320000000  0.3834910000000 1.0
C      1  0.5172450000000  0.4926330000000  0.6165090000000 1.0
C      1  0.4827540000000  0.5073680000000  0.6165090000000 1.0
C      1  0.5073680000000  0.3834910000000  0.4827550000000 1.0
C      1  0.3834910000000  0.5172450000000  0.4926320000000 1.0
C      1  0.5172450000000  0.5073680000000  0.6165090000000 1.0
C      1  0.4926320000000  0.6165090000000  0.4827540000000 1.0
C      1  0.5073670000000  0.6165090000000  0.5172450000000 1.0
C      1  0.4926330000000  0.3834910000000  0.5172460000000 1.0
C      1  0.6165090000000  0.4827550000000  0.4926340000000 1.0
C      1  0.3834910000000  0.4827540000000  0.5073670000000 1.0
C      1  0.6165090000000  0.5172460000000  0.5073680000000 1.0
C      1  0.4827540000000  0.4926330000000  0.6165090000000 1.0
C      1  0.5172460000000  0.4926320000000  0.3834910000000 1.0
C      1  0.4827550000000  0.5073670000000  0.3834910000000 1.0
C      1  0.5129440000000  0.5670720000000  0.5720060000000 1.0
C      1  0.5670710000000  0.5720060000000  0.5129460000000 1.0
C      1  0.5720050000000  0.5129460000000  0.5670720000000 1.0
C      1  0.4870550000000  0.4329290000000  0.5720060000000 1.0
C      1  0.5129460000000  0.4329280000000  0.4279940000000 1.0
C      1  0.4870550000000  0.5670710000000  0.4279940000000 1.0
C      1  0.4329290000000  0.4279940000000  0.5129450000000 1.0
C      1  0.5670720000000  0.4279940000000  0.4870550000000 1.0
C      1  0.4329280000000  0.5720050000000  0.4870540000000 1.0
C      1  0.4279940000000  0.4870550000000  0.5670710000000 1.0
C      1  0.5720060000000  0.4870550000000  0.4329290000000 1.0
C      1  0.4279950000000  0.5129450000000  0.4329280000000 1.0
C      1  0.5129450000000  0.5670710000000  0.4279940000000 1.0
C      1  0.5670710000000  0.5720060000000  0.4870550000000 1.0
C      1  0.5720060000000  0.5129450000000  0.4329290000000 1.0
C      1  0.4870560000000  0.4329280000000  0.4279940000000 1.0
C      1  0.5129450000000  0.4329290000000  0.5720060000000 1.0
C      1  0.4870540000000  0.5670720000000  0.5720060000000 1.0
C      1  0.4329290000000  0.4279940000000  0.4870540000000 1.0
C      1  0.5670720000000  0.4279950000000  0.5129460000000 1.0
C      1  0.4329280000000  0.5720060000000  0.5129450000000 1.0
C      1  0.4279950000000  0.4870540000000  0.4329280000000 1.0
C      1  0.5720050000000  0.4870550000000  0.5670720000000 1.0
C      1  0.4279940000000  0.5129450000000  0.5670710000000 1.0
C      1  0.4502750000000  0.4211560000000  0.4693840000000 1.0
C      1  0.4211570000000  0.4693840000000  0.4502740000000 1.0
C      1  0.4693850000000  0.4502740000000  0.4211560000000 1.0
C      1  0.5497250000000  0.5788440000000  0.4693840000000 1.0
C      1  0.4502740000000  0.5788440000000  0.5306150000000 1.0
C      1  0.5497260000000  0.4211560000000  0.5306160000000 1.0
C      1  0.5788440000000  0.5306160000000  0.4502750000000 1.0
C      1  0.4211560000000  0.5306160000000  0.5497250000000 1.0
C      1  0.5788440000000  0.4693850000000  0.5497260000000 1.0
C      1  0.5306160000000  0.5497250000000  0.4211560000000 1.0
C      1  0.4693830000000  0.5497260000000  0.5788440000000 1.0
C      1  0.5306150000000  0.4502750000000  0.5788440000000 1.0
C      1  0.4502750000000  0.4211560000000  0.5306160000000 1.0
C      1  0.4211560000000  0.4693840000000  0.5497250000000 1.0
C      1  0.4693840000000  0.4502750000000  0.5788440000000 1.0
C      1  0.5497250000000  0.5788440000000  0.5306160000000 1.0
C      1  0.4502740000000  0.5788440000000  0.4693840000000 1.0
C      1  0.5497260000000  0.4211560000000  0.4693850000000 1.0
C      1  0.5788430000000  0.5306160000000  0.5497260000000 1.0
C      1  0.4211560000000  0.5306150000000  0.4502740000000 1.0
C      1  0.5788440000000  0.4693840000000  0.4502750000000 1.0
C      1  0.5306150000000  0.5497260000000  0.5788440000000 1.0
C      1  0.4693850000000  0.5497250000000  0.4211560000000 1.0
C      1  0.5306170000000  0.4502740000000  0.4211560000000 1.0
C      1  0.4422290000000  0.4534100000000  0.4500560000000 1.0
C      1  0.4534110000000  0.4500550000000  0.4422280000000 1.0
C      1  0.4500570000000  0.4422280000000  0.4534100000000 1.0
C      1  0.5577720000000  0.5465900000000  0.4500560000000 1.0
C      1  0.4422280000000  0.5465900000000  0.5499440000000 1.0
C      1  0.5577720000000  0.4534100000000  0.5499450000000 1.0
C      1  0.5465900000000  0.5499440000000  0.4422280000000 1.0
C      1  0.4534090000000  0.5499440000000  0.5577710000000 1.0
C      1  0.5465900000000  0.4500560000000  0.5577720000000 1.0
C      1  0.5499440000000  0.5577720000000  0.4534100000000 1.0
C      1  0.4500550000000  0.5577720000000  0.5465890000000 1.0
C      1  0.5499440000000  0.4422290000000  0.5465910000000 1.0
C      1  0.4422280000000  0.4534100000000  0.5499440000000 1.0
C      1  0.4534100000000  0.4500560000000  0.5577720000000 1.0
C      1  0.4500560000000  0.4422280000000  0.5465900000000 1.0
C      1  0.5577710000000  0.5465900000000  0.5499440000000 1.0
C      1  0.4422280000000  0.5465900000000  0.4500550000000 1.0
C      1  0.5577720000000  0.4534100000000  0.4500560000000 1.0
C      1  0.5465890000000  0.5499450000000  0.5577720000000 1.0
C      1  0.4534100000000  0.5499440000000  0.4422280000000 1.0
C      1  0.5465910000000  0.4500560000000  0.4422290000000 1.0
C      1  0.5499430000000  0.5577720000000  0.5465900000000 1.0
C      1  0.4500560000000  0.5577710000000  0.4534090000000 1.0
C      1  0.5499450000000  0.4422280000000  0.4534110000000 1.0
C      1  0.5378230000000  0.4151560000000  0.4639670000000 1.0
C      1  0.4151560000000  0.4639660000000  0.5378210000000 1.0
C      1  0.4639670000000  0.5378210000000  0.4151560000000 1.0
C      1  0.4621780000000  0.5848440000000  0.4639660000000 1.0
C      1  0.5378210000000  0.5848440000000  0.5360340000000 1.0
C      1  0.4621780000000  0.4151560000000  0.5360340000000 1.0
C      1  0.5848440000000  0.5360340000000  0.5378220000000 1.0
C      1  0.4151560000000  0.5360330000000  0.4621770000000 1.0
C      1  0.5848450000000  0.4639670000000  0.4621790000000 1.0
C      1  0.5360350000000  0.4621780000000  0.4151560000000 1.0
C      1  0.4639660000000  0.4621780000000  0.5848440000000 1.0
C      1  0.5360330000000  0.5378220000000  0.5848440000000 1.0
C      1  0.5378220000000  0.4151560000000  0.5360340000000 1.0
C      1  0.4151560000000  0.4639660000000  0.4621780000000 1.0
C      1  0.4639650000000  0.5378220000000  0.5848440000000 1.0
C      1  0.4621770000000  0.5848440000000  0.5360330000000 1.0
C      1  0.5378220000000  0.5848440000000  0.4639660000000 1.0
C      1  0.4621790000000  0.4151560000000  0.4639660000000 1.0
C      1  0.5848440000000  0.5360340000000  0.4621790000000 1.0
C      1  0.4151550000000  0.5360330000000  0.5378210000000 1.0
C      1  0.5848440000000  0.4639670000000  0.5378230000000 1.0
C      1  0.5360330000000  0.4621790000000  0.5848440000000 1.0
C      1  0.4639670000000  0.4621780000000  0.4151560000000 1.0
C      1  0.5360340000000  0.5378220000000  0.4151560000000 1.0
C      1  0.5755250000000  0.4284770000000  0.4594640000000 1.0
C      1  0.4284760000000  0.4594630000000  0.5755240000000 1.0
C      1  0.4594630000000  0.5755240000000  0.4284760000000 1.0
C      1  0.4244760000000  0.5715230000000  0.4594620000000 1.0
C      1  0.5755240000000  0.5715240000000  0.5405370000000 1.0
C      1  0.4244760000000  0.4284760000000  0.5405370000000 1.0
C      1  0.5715230000000  0.5405380000000  0.5755250000000 1.0
C      1  0.4284770000000  0.5405360000000  0.4244750000000 1.0
C      1  0.5715240000000  0.4594630000000  0.4244760000000 1.0
C      1  0.5405380000000  0.4244760000000  0.4284770000000 1.0
C      1  0.4594630000000  0.4244760000000  0.5715230000000 1.0
C      1  0.5405360000000  0.5755250000000  0.5715240000000 1.0
C      1  0.5755240000000  0.4284770000000  0.5405380000000 1.0
C      1  0.4284770000000  0.4594620000000  0.4244750000000 1.0
C      1  0.4594620000000  0.5755240000000  0.5715230000000 1.0
C      1  0.4244750000000  0.5715230000000  0.5405360000000 1.0
C      1  0.5755240000000  0.5715240000000  0.4594630000000 1.0
C      1  0.4244760000000  0.4284760000000  0.4594630000000 1.0
C      1  0.5715240000000  0.5405370000000  0.4244760000000 1.0
C      1  0.4284760000000  0.5405370000000  0.5755240000000 1.0
C      1  0.5715230000000  0.4594640000000  0.5755250000000 1.0
C      1  0.5405370000000  0.4244760000000  0.5715240000000 1.0
C      1  0.4594640000000  0.4244750000000  0.4284760000000 1.0
C      1  0.5405370000000  0.5755240000000  0.4284770000000 1.0
C      1  0.4216660000000  0.4390310000000  0.5321960000000 1.0
C      1  0.4390320000000  0.5321960000000  0.4216660000000 1.0
C      1  0.5321980000000  0.4216660000000  0.4390320000000 1.0
C      1  0.5783330000000  0.5609690000000  0.5321970000000 1.0
C      1  0.4216660000000  0.5609680000000  0.4678020000000 1.0
C      1  0.5783340000000  0.4390320000000  0.4678040000000 1.0
C      1  0.5609690000000  0.4678030000000  0.4216670000000 1.0
C      1  0.4390310000000  0.4678030000000  0.5783330000000 1.0
C      1  0.5609680000000  0.5321970000000  0.5783340000000 1.0
C      1  0.4678030000000  0.5783330000000  0.4390310000000 1.0
C      1  0.5321960000000  0.5783340000000  0.5609690000000 1.0
C      1  0.4678030000000  0.4216660000000  0.5609690000000 1.0
C      1  0.4216670000000  0.4390310000000  0.4678030000000 1.0
C      1  0.4390310000000  0.5321970000000  0.5783330000000 1.0
C      1  0.5321970000000  0.4216670000000  0.5609690000000 1.0
C      1  0.5783340000000  0.5609690000000  0.4678040000000 1.0
C      1  0.4216660000000  0.5609680000000  0.5321960000000 1.0
C      1  0.5783340000000  0.4390320000000  0.5321980000000 1.0
C      1  0.5609680000000  0.4678040000000  0.5783340000000 1.0
C      1  0.4390320000000  0.4678030000000  0.4216660000000 1.0
C      1  0.5609690000000  0.5321970000000  0.4216670000000 1.0
C      1  0.4678020000000  0.5783340000000  0.5609680000000 1.0
C      1  0.5321970000000  0.5783340000000  0.4390310000000 1.0
C      1  0.4678040000000  0.4216660000000  0.4390310000000 1.0
C      1  0.4924380000000  0.5360690000000  0.5954270000000 1.0
C      1  0.5360680000000  0.5954270000000  0.4924390000000 1.0
C      1  0.5954270000000  0.4924400000000  0.5360690000000 1.0
C      1  0.5075600000000  0.4639320000000  0.5954270000000 1.0
C      1  0.4924400000000  0.4639310000000  0.4045730000000 1.0
C      1  0.5075610000000  0.5360680000000  0.4045730000000 1.0
C      1  0.4639320000000  0.4045730000000  0.4924390000000 1.0
C      1  0.5360690000000  0.4045730000000  0.5075610000000 1.0
C      1  0.4639310000000  0.5954270000000  0.5075600000000 1.0
C      1  0.4045730000000  0.5075600000000  0.5360680000000 1.0
C      1  0.5954270000000  0.5075610000000  0.4639320000000 1.0
C      1  0.4045740000000  0.4924390000000  0.4639310000000 1.0
C      1  0.4924400000000  0.5360680000000  0.4045730000000 1.0
C      1  0.5360680000000  0.5954270000000  0.5075610000000 1.0
C      1  0.5954270000000  0.4924400000000  0.4639320000000 1.0
C      1  0.5075620000000  0.4639310000000  0.4045730000000 1.0
C      1  0.4924390000000  0.4639320000000  0.5954270000000 1.0
C      1  0.5075600000000  0.5360690000000  0.5954270000000 1.0
C      1  0.4639320000000  0.4045730000000  0.5075610000000 1.0
C      1  0.5360690000000  0.4045730000000  0.4924400000000 1.0
C      1  0.4639310000000  0.5954270000000  0.4924390000000 1.0
C      1  0.4045730000000  0.5075600000000  0.4639310000000 1.0
C      1  0.5954260000000  0.5075610000000  0.5360690000000 1.0
C      1  0.4045730000000  0.4924390000000  0.5360680000000 1.0
C      1  0.5133680000000  0.6227490000000  0.5061350000000 1.0
C      1  0.6227490000000  0.5061360000000  0.5133700000000 1.0
C      1  0.5061350000000  0.5133690000000  0.6227490000000 1.0
C      1  0.4866320000000  0.3772510000000  0.5061360000000 1.0
C      1  0.5133700000000  0.3772510000000  0.4938650000000 1.0
C      1  0.4866300000000  0.6227490000000  0.4938640000000 1.0
C      1  0.3772510000000  0.4938640000000  0.5133680000000 1.0
C      1  0.6227490000000  0.4938650000000  0.4866320000000 1.0
C      1  0.3772510000000  0.5061350000000  0.4866300000000 1.0
C      1  0.4938640000000  0.4866310000000  0.6227490000000 1.0
C      1  0.5061370000000  0.4866310000000  0.3772510000000 1.0
C      1  0.4938650000000  0.5133690000000  0.3772510000000 1.0
C      1  0.5133680000000  0.6227490000000  0.4938640000000 1.0
C      1  0.6227490000000  0.5061360000000  0.4866320000000 1.0
C      1  0.5061360000000  0.5133690000000  0.3772510000000 1.0
C      1  0.4866320000000  0.3772510000000  0.4938650000000 1.0
C      1  0.5133700000000  0.3772510000000  0.5061360000000 1.0
C      1  0.4866300000000  0.6227490000000  0.5061350000000 1.0
C      1  0.3772510000000  0.4938640000000  0.4866300000000 1.0
C      1  0.6227490000000  0.4938650000000  0.5133700000000 1.0
C      1  0.3772510000000  0.5061350000000  0.5133680000000 1.0
C      1  0.4938650000000  0.4866310000000  0.3772510000000 1.0
C      1  0.5061350000000  0.4866310000000  0.6227490000000 1.0
C      1  0.4938630000000  0.5133690000000  0.6227490000000 1.0
C      1  0.4201400000000  0.5491580000000  0.5396290000000 1.0
C      1  0.5491590000000  0.5396300000000  0.4201410000000 1.0
C      1  0.5396300000000  0.4201410000000  0.5491590000000 1.0
C      1  0.5798590000000  0.4508420000000  0.5396300000000 1.0
C      1  0.4201410000000  0.4508410000000  0.4603700000000 1.0
C      1  0.5798590000000  0.5491590000000  0.4603710000000 1.0
C      1  0.4508420000000  0.4603700000000  0.4201410000000 1.0
C      1  0.5491580000000  0.4603710000000  0.5798600000000 1.0
C      1  0.4508410000000  0.5396300000000  0.5798590000000 1.0
C      1  0.4603700000000  0.5798590000000  0.5491580000000 1.0
C      1  0.5396300000000  0.5798590000000  0.4508420000000 1.0
C      1  0.4603710000000  0.4201410000000  0.4508420000000 1.0
C      1  0.4201410000000  0.5491580000000  0.4603700000000 1.0
C      1  0.5491580000000  0.5396300000000  0.5798590000000 1.0
C      1  0.5396300000000  0.4201410000000  0.4508420000000 1.0
C      1  0.5798600000000  0.4508420000000  0.4603710000000 1.0
C      1  0.4201410000000  0.4508410000000  0.5396290000000 1.0
C      1  0.5798590000000  0.5491590000000  0.5396300000000 1.0
C      1  0.4508410000000  0.4603700000000  0.5798590000000 1.0
C      1  0.5491590000000  0.4603700000000  0.4201410000000 1.0
C      1  0.4508420000000  0.5396290000000  0.4201400000000 1.0
C      1  0.4603700000000  0.5798590000000  0.4508410000000 1.0
C      1  0.5396290000000  0.5798590000000  0.5491580000000 1.0
C      1  0.4603700000000  0.4201410000000  0.5491580000000 1.0
C      1  0.5311030000000  0.5288580000000  0.4063130000000 1.0
C      1  0.5288590000000  0.4063130000000  0.5311030000000 1.0
C      1  0.4063130000000  0.5311020000000  0.5288580000000 1.0
C      1  0.4688990000000  0.4711410000000  0.4063130000000 1.0
C      1  0.5311020000000  0.4711420000000  0.5936870000000 1.0
C      1  0.4688970000000  0.5288590000000  0.5936870000000 1.0
C      1  0.4711410000000  0.5936870000000  0.5311020000000 1.0
C      1  0.5288580000000  0.5936870000000  0.4688980000000 1.0
C      1  0.4711420000000  0.4063130000000  0.4688980000000 1.0
C      1  0.5936870000000  0.4688980000000  0.5288590000000 1.0
C      1  0.4063130000000  0.4688970000000  0.4711410000000 1.0
C      1  0.5936870000000  0.5311030000000  0.4711420000000 1.0
C      1  0.5311010000000  0.5288590000000  0.5936870000000 1.0
C      1  0.5288590000000  0.4063130000000  0.4688980000000 1.0
C      1  0.4063130000000  0.5311020000000  0.4711410000000 1.0
C      1  0.4688970000000  0.4711420000000  0.5936870000000 1.0
C      1  0.5311030000000  0.4711410000000  0.4063130000000 1.0
C      1  0.4688980000000  0.5288580000000  0.4063130000000 1.0
C      1  0.4711410000000  0.5936870000000  0.4688970000000 1.0
C      1  0.5288580000000  0.5936870000000  0.5311020000000 1.0
C      1  0.4711420000000  0.4063130000000  0.5311020000000 1.0
C      1  0.5936870000000  0.4688980000000  0.4711420000000 1.0
C      1  0.4063130000000  0.4688970000000  0.5288580000000 1.0
C      1  0.5936870000000  0.5311030000000  0.5288590000000 1.0
C      1  0.4821420000000  0.4450230000000  0.4208670000000 1.0
C      1  0.4450240000000  0.4208660000000  0.4821410000000 1.0
C      1  0.4208670000000  0.4821400000000  0.4450230000000 1.0
C      1  0.5178600000000  0.5549770000000  0.4208670000000 1.0
C      1  0.4821400000000  0.5549770000000  0.5791330000000 1.0
C      1  0.5178590000000  0.4450240000000  0.5791340000000 1.0
C      1  0.5549770000000  0.5791340000000  0.4821410000000 1.0
C      1  0.4450230000000  0.5791330000000  0.5178590000000 1.0
C      1  0.5549770000000  0.4208670000000  0.5178600000000 1.0
C      1  0.5791340000000  0.5178590000000  0.4450240000000 1.0
C      1  0.4208660000000  0.5178590000000  0.5549760000000 1.0
C      1  0.5791330000000  0.4821410000000  0.5549770000000 1.0
C      1  0.4821400000000  0.4450230000000  0.5791330000000 1.0
C      1  0.4450230000000  0.4208660000000  0.5178590000000 1.0
C      1  0.4208660000000  0.4821410000000  0.5549760000000 1.0
C      1  0.5178580000000  0.5549770000000  0.5791330000000 1.0
C      1  0.4821410000000  0.5549760000000  0.4208660000000 1.0
C      1  0.5178600000000  0.4450230000000  0.4208670000000 1.0
C      1  0.5549760000000  0.5791340000000  0.5178590000000 1.0
C      1  0.4450230000000  0.5791330000000  0.4821400000000 1.0
C      1  0.5549770000000  0.4208670000000  0.4821410000000 1.0
C      1  0.5791330000000  0.5178600000000  0.5549770000000 1.0
C      1  0.4208670000000  0.5178590000000  0.4450230000000 1.0
C      1  0.5791340000000  0.4821410000000  0.4450240000000 1.0
C      1  0.4243000000000  0.4357350000000  0.4289430000000 1.0
C      1  0.4357360000000  0.4289430000000  0.4242990000000 1.0
C      1  0.4289440000000  0.4242980000000  0.4357350000000 1.0
C      1  0.5757010000000  0.5642650000000  0.4289440000000 1.0
C      1  0.4242980000000  0.5642640000000  0.5710560000000 1.0
C      1  0.5757010000000  0.4357360000000  0.5710580000000 1.0
C      1  0.5642650000000  0.5710570000000  0.4242990000000 1.0
C      1  0.4357350000000  0.5710570000000  0.5757000000000 1.0
C      1  0.5642640000000  0.4289440000000  0.5757020000000 1.0
C      1  0.5710570000000  0.5757010000000  0.4357360000000 1.0
C      1  0.4289420000000  0.5757010000000  0.5642640000000 1.0
C      1  0.5710570000000  0.4243000000000  0.5642650000000 1.0
C      1  0.4242990000000  0.4357350000000  0.5710560000000 1.0
C      1  0.4357350000000  0.4289430000000  0.5757010000000 1.0
C      1  0.4289430000000  0.4242990000000  0.5642640000000 1.0
C      1  0.5757000000000  0.5642650000000  0.5710570000000 1.0
C      1  0.4242990000000  0.5642640000000  0.4289420000000 1.0
C      1  0.5757020000000  0.4357360000000  0.4289440000000 1.0
C      1  0.5642640000000  0.5710570000000  0.5757010000000 1.0
C      1  0.4357360000000  0.5710560000000  0.4242980000000 1.0
C      1  0.5642650000000  0.4289430000000  0.4243000000000 1.0
C      1  0.5710560000000  0.5757020000000  0.5642650000000 1.0
C      1  0.4289430000000  0.5757000000000  0.4357350000000 1.0
C      1  0.5710580000000  0.4242990000000  0.4357360000000 1.0
C      1  0.5558370000000  0.4924370000000  0.4158840000000 1.0
C      1  0.4924370000000  0.4158830000000  0.5558360000000 1.0
C      1  0.4158830000000  0.5558360000000  0.4924360000000 1.0
C      1  0.4441640000000  0.5075630000000  0.4158830000000 1.0
C      1  0.5558350000000  0.5075640000000  0.5841170000000 1.0
C      1  0.4441630000000  0.4924370000000  0.5841160000000 1.0
C      1  0.5075630000000  0.5841170000000  0.5558360000000 1.0
C      1  0.4924370000000  0.5841170000000  0.4441640000000 1.0
C      1  0.5075640000000  0.4158830000000  0.4441640000000 1.0
C      1  0.5841170000000  0.4441640000000  0.4924370000000 1.0
C      1  0.4158830000000  0.4441630000000  0.5075630000000 1.0
C      1  0.5841160000000  0.5558370000000  0.5075640000000 1.0
C      1  0.5558360000000  0.4924370000000  0.5841170000000 1.0
C      1  0.4924370000000  0.4158830000000  0.4441640000000 1.0
C      1  0.4158830000000  0.5558360000000  0.5075630000000 1.0
C      1  0.4441630000000  0.5075630000000  0.5841160000000 1.0
C      1  0.5558370000000  0.5075630000000  0.4158840000000 1.0
C      1  0.4441650000000  0.4924360000000  0.4158830000000 1.0
C      1  0.5075630000000  0.5841170000000  0.4441640000000 1.0
C      1  0.4924360000000  0.5841170000000  0.5558360000000 1.0
C      1  0.5075630000000  0.4158830000000  0.5558360000000 1.0
C      1  0.5841170000000  0.4441640000000  0.5075640000000 1.0
C      1  0.4158840000000  0.4441630000000  0.4924360000000 1.0
C      1  0.5841170000000  0.5558370000000  0.4924370000000 1.0
C      1  0.4551590000000  0.4927350000000  0.4058430000000 1.0
C      1  0.4927370000000  0.4058430000000  0.4551580000000 1.0
C      1  0.4058440000000  0.4551580000000  0.4927350000000 1.0
C      1  0.5448430000000  0.5072640000000  0.4058440000000 1.0
C      1  0.4551570000000  0.5072640000000  0.5941560000000 1.0
C      1  0.5448410000000  0.4927360000000  0.5941570000000 1.0
C      1  0.5072640000000  0.5941570000000  0.4551580000000 1.0
C      1  0.4927350000000  0.5941570000000  0.5448420000000 1.0
C      1  0.5072640000000  0.4058430000000  0.5448420000000 1.0
C      1  0.5941570000000  0.5448420000000  0.4927360000000 1.0
C      1  0.4058430000000  0.5448410000000  0.5072630000000 1.0
C      1  0.5941570000000  0.4551590000000  0.5072650000000 1.0
C      1  0.4551570000000  0.4927360000000  0.5941560000000 1.0
C      1  0.4927360000000  0.4058430000000  0.5448420000000 1.0
C      1  0.4058430000000  0.4551580000000  0.5072640000000 1.0
C      1  0.5448410000000  0.5072650000000  0.5941570000000 1.0
C      1  0.4551590000000  0.5072640000000  0.4058430000000 1.0
C      1  0.5448430000000  0.4927360000000  0.4058440000000 1.0
C      1  0.5072630000000  0.5941570000000  0.5448420000000 1.0
C      1  0.4927360000000  0.5941570000000  0.4551580000000 1.0
C      1  0.5072650000000  0.4058430000000  0.4551580000000 1.0
C      1  0.5941560000000  0.5448420000000  0.5072650000000 1.0
C      1  0.4058430000000  0.5448410000000  0.4927350000000 1.0
C      1  0.5941570000000  0.4551590000000  0.4927370000000 1.0
C      1  0.4841340000000  0.6071910000000  0.5230140000000 1.0
C      1  0.6071910000000  0.5230150000000  0.4841350000000 1.0
C      1  0.5230140000000  0.4841350000000  0.6071910000000 1.0
C      1  0.5158660000000  0.3928090000000  0.5230150000000 1.0
C      1  0.4841350000000  0.3928090000000  0.4769860000000 1.0
C      1  0.5158650000000  0.6071910000000  0.4769850000000 1.0
C      1  0.3928090000000  0.4769850000000  0.4841340000000 1.0
C      1  0.6071910000000  0.4769860000000  0.5158660000000 1.0
C      1  0.3928090000000  0.5230140000000  0.5158650000000 1.0
C      1  0.4769840000000  0.5158660000000  0.6071910000000 1.0
C      1  0.5230150000000  0.5158650000000  0.3928090000000 1.0
C      1  0.4769860000000  0.4841340000000  0.3928090000000 1.0
C      1  0.4841340000000  0.6071910000000  0.4769850000000 1.0
C      1  0.6071910000000  0.5230150000000  0.5158660000000 1.0
C      1  0.5230160000000  0.4841340000000  0.3928090000000 1.0
C      1  0.5158660000000  0.3928090000000  0.4769860000000 1.0
C      1  0.4841350000000  0.3928090000000  0.5230150000000 1.0
C      1  0.5158650000000  0.6071910000000  0.5230140000000 1.0
C      1  0.3928090000000  0.4769850000000  0.5158650000000 1.0
C      1  0.6071910000000  0.4769860000000  0.4841350000000 1.0
C      1  0.3928090000000  0.5230140000000  0.4841340000000 1.0
C      1  0.4769860000000  0.5158650000000  0.3928090000000 1.0
C      1  0.5230140000000  0.5158660000000  0.6071910000000 1.0
C      1  0.4769850000000  0.4841350000000  0.6071910000000 1.0
C      1  0.5525110000000  0.4276000000000  0.5449380000000 1.0
C      1  0.4275990000000  0.5449370000000  0.5525100000000 1.0
C      1  0.5449380000000  0.5525110000000  0.4276000000000 1.0
C      1  0.4474880000000  0.5724000000000  0.5449370000000 1.0
C      1  0.5525110000000  0.5724000000000  0.4550630000000 1.0
C      1  0.4474900000000  0.4275990000000  0.4550620000000 1.0
C      1  0.5724000000000  0.4550630000000  0.5525120000000 1.0
C      1  0.4276000000000  0.4550620000000  0.4474890000000 1.0
C      1  0.5724000000000  0.5449380000000  0.4474900000000 1.0
C      1  0.4550630000000  0.4474890000000  0.4276000000000 1.0
C      1  0.5449370000000  0.4474900000000  0.5724010000000 1.0
C      1  0.4550620000000  0.5525110000000  0.5724000000000 1.0
C      1  0.5525120000000  0.4276000000000  0.4550630000000 1.0
C      1  0.4276000000000  0.5449370000000  0.4474880000000 1.0
C      1  0.5449370000000  0.5525110000000  0.5724000000000 1.0
C      1  0.4474890000000  0.5724000000000  0.4550620000000 1.0
C      1  0.5525100000000  0.5724010000000  0.5449380000000 1.0
C      1  0.4474890000000  0.4276000000000  0.5449370000000 1.0
C      1  0.5724010000000  0.4550630000000  0.4474900000000 1.0
C      1  0.4276000000000  0.4550620000000  0.5525100000000 1.0
C      1  0.5724000000000  0.5449380000000  0.5525110000000 1.0
C      1  0.4550620000000  0.4474890000000  0.5724000000000 1.0
C      1  0.5449380000000  0.4474890000000  0.4276000000000 1.0
C      1  0.4550630000000  0.5525100000000  0.4275990000000 1.0
C      1  0.5476830000000  0.4137290000000  0.4926250000000 1.0
C      1  0.4137280000000  0.4926240000000  0.5476820000000 1.0
C      1  0.4926240000000  0.5476820000000  0.4137290000000 1.0
C      1  0.4523170000000  0.5862710000000  0.4926230000000 1.0
C      1  0.5476820000000  0.5862720000000  0.5073760000000 1.0
C      1  0.4523180000000  0.4137290000000  0.5073760000000 1.0
C      1  0.5862710000000  0.5073770000000  0.5476830000000 1.0
C      1  0.4137290000000  0.5073750000000  0.4523170000000 1.0
C      1  0.5862720000000  0.4926240000000  0.4523190000000 1.0
C      1  0.5073770000000  0.4523180000000  0.4137290000000 1.0
C      1  0.4926240000000  0.4523180000000  0.5862710000000 1.0
C      1  0.5073750000000  0.5476820000000  0.5862710000000 1.0
C      1  0.5476830000000  0.4137290000000  0.5073770000000 1.0
C      1  0.4137290000000  0.4926230000000  0.4523170000000 1.0
C      1  0.4926230000000  0.5476820000000  0.5862710000000 1.0
C      1  0.4523170000000  0.5862710000000  0.5073750000000 1.0
C      1  0.5476820000000  0.5862710000000  0.4926240000000 1.0
C      1  0.4523180000000  0.4137280000000  0.4926240000000 1.0
C      1  0.5862720000000  0.5073760000000  0.4523180000000 1.0
C      1  0.4137280000000  0.5073760000000  0.5476810000000 1.0
C      1  0.5862710000000  0.4926250000000  0.5476830000000 1.0
C      1  0.5073760000000  0.4523180000000  0.5862710000000 1.0
C      1  0.4926250000000  0.4523180000000  0.4137290000000 1.0
C      1  0.5073760000000  0.5476820000000  0.4137290000000 1.0
C      1  0.5998550000000  0.4819040000000  0.5283360000000 1.0
C      1  0.4819030000000  0.5283350000000  0.5998550000000 1.0
C      1  0.5283340000000  0.5998550000000  0.4819030000000 1.0
C      1  0.4001440000000  0.5180960000000  0.5283340000000 1.0
C      1  0.5998560000000  0.5180970000000  0.4716660000000 1.0
C      1  0.4001450000000  0.4819030000000  0.4716650000000 1.0
C      1  0.5180960000000  0.4716660000000  0.5998560000000 1.0
C      1  0.4819040000000  0.4716650000000  0.4001450000000 1.0
C      1  0.5180970000000  0.5283350000000  0.4001450000000 1.0
C      1  0.4716660000000  0.4001440000000  0.4819040000000 1.0
C      1  0.5283350000000  0.4001450000000  0.5180970000000 1.0
C      1  0.4716650000000  0.5998550000000  0.5180960000000 1.0
C      1  0.5998560000000  0.4819040000000  0.4716660000000 1.0
C      1  0.4819040000000  0.5283340000000  0.4001440000000 1.0
C      1  0.5283340000000  0.5998560000000  0.5180960000000 1.0
C      1  0.4001450000000  0.5180960000000  0.4716640000000 1.0
C      1  0.5998550000000  0.5180970000000  0.5283350000000 1.0
C      1  0.4001440000000  0.4819030000000  0.5283340000000 1.0
C      1  0.5180970000000  0.4716650000000  0.4001450000000 1.0
C      1  0.4819030000000  0.4716650000000  0.5998550000000 1.0
C      1  0.5180960000000  0.5283350000000  0.5998550000000 1.0
C      1  0.4716660000000  0.4001450000000  0.5180970000000 1.0
C      1  0.5283350000000  0.4001450000000  0.4819040000000 1.0
C      1  0.4716650000000  0.5998550000000  0.4819030000000 1.0
C      1  0.4231130000000  0.5624970000000  0.5177190000000 1.0
C      1  0.5624970000000  0.5177200000000  0.4231140000000 1.0
C      1  0.5177200000000  0.4231140000000  0.5624970000000 1.0
C      1  0.5768860000000  0.4375040000000  0.5177210000000 1.0
C      1  0.4231140000000  0.4375030000000  0.4822790000000 1.0
C      1  0.5768860000000  0.5624970000000  0.4822800000000 1.0
C      1  0.4375040000000  0.4822790000000  0.4231130000000 1.0
C      1  0.5624960000000  0.4822800000000  0.5768870000000 1.0
C      1  0.4375020000000  0.5177200000000  0.5768860000000 1.0
C      1  0.4822790000000  0.5768860000000  0.5624970000000 1.0
C      1  0.5177200000000  0.5768860000000  0.4375030000000 1.0
C      1  0.4822810000000  0.4231140000000  0.4375030000000 1.0
C      1  0.4231140000000  0.5624960000000  0.4822790000000 1.0
C      1  0.5624960000000  0.5177210000000  0.5768870000000 1.0
C      1  0.5177210000000  0.4231140000000  0.4375030000000 1.0
C      1  0.5768870000000  0.4375030000000  0.4822810000000 1.0
C      1  0.4231140000000  0.4375030000000  0.5177200000000 1.0
C      1  0.5768860000000  0.5624970000000  0.5177210000000 1.0
C      1  0.4375030000000  0.4822800000000  0.5768860000000 1.0
C      1  0.5624980000000  0.4822800000000  0.4231140000000 1.0
C      1  0.4375040000000  0.5177200000000  0.4231130000000 1.0
C      1  0.4822800000000  0.5768860000000  0.4375030000000 1.0
C      1  0.5177190000000  0.5768860000000  0.5624970000000 1.0
C      1  0.4822800000000  0.4231140000000  0.5624970000000 1.0
C      1  0.5758150000000  0.4497250000000  0.4325340000000 1.0
C      1  0.4497250000000  0.4325340000000  0.5758140000000 1.0
C      1  0.4325340000000  0.5758130000000  0.4497240000000 1.0
C      1  0.4241860000000  0.5502740000000  0.4325330000000 1.0
C      1  0.5758130000000  0.5502760000000  0.5674670000000 1.0
C      1  0.4241860000000  0.4497250000000  0.5674660000000 1.0
C      1  0.5502740000000  0.5674670000000  0.5758140000000 1.0
C      1  0.4497250000000  0.5674660000000  0.4241850000000 1.0
C      1  0.5502760000000  0.4325340000000  0.4241870000000 1.0
C      1  0.5674670000000  0.4241860000000  0.4497260000000 1.0
C      1  0.4325340000000  0.4241860000000  0.5502750000000 1.0
C      1  0.5674660000000  0.5758150000000  0.5502750000000 1.0
C      1  0.5758140000000  0.4497260000000  0.5674670000000 1.0
C      1  0.4497260000000  0.4325330000000  0.4241860000000 1.0
C      1  0.4325330000000  0.5758140000000  0.5502740000000 1.0
C      1  0.4241850000000  0.5502750000000  0.5674660000000 1.0
C      1  0.5758140000000  0.5502750000000  0.4325340000000 1.0
C      1  0.4241870000000  0.4497240000000  0.4325330000000 1.0
C      1  0.5502750000000  0.5674660000000  0.4241860000000 1.0
C      1  0.4497240000000  0.5674660000000  0.5758130000000 1.0
C      1  0.5502750000000  0.4325340000000  0.5758150000000 1.0
C      1  0.5674660000000  0.4241870000000  0.5502760000000 1.0
C      1  0.4325340000000  0.4241850000000  0.4497250000000 1.0
C      1  0.5674660000000  0.5758140000000  0.4497250000000 1.0
C      1  0.4010410000000  0.5351560000000  0.4840250000000 1.0
C      1  0.5351570000000  0.4840260000000  0.4010420000000 1.0
C      1  0.4840260000000  0.4010420000000  0.5351560000000 1.0
C      1  0.5989590000000  0.4648440000000  0.4840270000000 1.0
C      1  0.4010420000000  0.4648430000000  0.5159740000000 1.0
C      1  0.5989580000000  0.5351570000000  0.5159750000000 1.0
C      1  0.4648440000000  0.5159740000000  0.4010410000000 1.0
C      1  0.5351550000000  0.5159750000000  0.5989590000000 1.0
C      1  0.4648430000000  0.4840260000000  0.5989580000000 1.0
C      1  0.5159740000000  0.5989590000000  0.5351560000000 1.0
C      1  0.4840250000000  0.5989580000000  0.4648430000000 1.0
C      1  0.5159750000000  0.4010420000000  0.4648440000000 1.0
C      1  0.4010410000000  0.5351560000000  0.5159730000000 1.0
C      1  0.5351560000000  0.4840260000000  0.5989590000000 1.0
C      1  0.4840260000000  0.4010410000000  0.4648440000000 1.0
C      1  0.5989590000000  0.4648440000000  0.5159750000000 1.0
C      1  0.4010420000000  0.4648430000000  0.4840250000000 1.0
C      1  0.5989580000000  0.5351570000000  0.4840260000000 1.0
C      1  0.4648430000000  0.5159740000000  0.5989580000000 1.0
C      1  0.5351570000000  0.5159740000000  0.4010420000000 1.0
C      1  0.4648450000000  0.4840250000000  0.4010410000000 1.0
C      1  0.5159740000000  0.5989580000000  0.4648440000000 1.0
C      1  0.4840250000000  0.5989580000000  0.5351560000000 1.0
C      1  0.5159750000000  0.4010420000000  0.5351570000000 1.0
C      1  0.5000000000000  0.4320640000000  0.5739030000000 1.0
C      1  0.4320640000000  0.5739020000000  0.4999990000000 1.0
C      1  0.5000000000000  0.5679360000000  0.4260970000000 1.0
C      1  0.5679360000000  0.4260980000000  0.5000010000000 1.0
C      1  0.5739030000000  0.5000000000000  0.4320650000000 1.0
C      1  0.4260980000000  0.4999990000000  0.4320640000000 1.0
C      1  0.5739020000000  0.5000010000000  0.5679360000000 1.0
C      1  0.4260970000000  0.5000000000000  0.5679350000000 1.0
C      1  0.4999990000000  0.5679360000000  0.5739020000000 1.0
C      1  0.5000010000000  0.4320640000000  0.4260980000000 1.0
C      1  0.4320650000000  0.4260970000000  0.5000000000000 1.0
C      1  0.5679350000000  0.5739030000000  0.5000000000000 1.0
END
