TITL C-66629-8849-10 30.2006594456603 1000000 -3793.13695790678 0 0 540 (Td) n - 1
REM
REM in /home/chem/mssmkc/work/GAP20/Larger-Clusters/Only-C240/New/BUILD-ONLY/Try2-C540
REM
REM
REM
REM
REM
REM ./C.cell (4d22446d3c8a03e2533cb19ef5564aa4)
REM
REM compiler GCC version 8.3.0
REM options -cpp -mtune=generic -march=x86-64 -g -O0
REM seed -1251064359 1712068225 776930029 -578944163 -87892478 1408931453 437583952 -999123038 333408113 -1823205825 -1437355947 105942598 1086734697 -1745703987 -200807908 902711590 2066421682 -1163013771 -1398921561 -416168959 -1107643670 -10723915 -386870240 470756162 -854387646 2070450954 1842949183 -1081683842 2139837382 -357421482 -871664221 352935542 -1182340336
REM
CELL 1.54180  100.00000  100.00000  100.00000   90.00000   90.00000   90.00000
LATT -1
SFAC C  
C      1  0.3936040000000  0.5497680000000  0.5396290000000 1.0
C      1  0.5396280000000  0.3936030000000  0.5497670000000 1.0
C      1  0.5497680000000  0.5396290000000  0.3936040000000 1.0
C      1  0.3936040000000  0.4502340000000  0.4603710000000 1.0
C      1  0.6063960000000  0.4502320000000  0.5396280000000 1.0
C      1  0.6063970000000  0.5497660000000  0.4603720000000 1.0
C      1  0.5396300000000  0.6063960000000  0.4502340000000 1.0
C      1  0.4603720000000  0.6063960000000  0.5497680000000 1.0
C      1  0.4603700000000  0.3936050000000  0.4502320000000 1.0
C      1  0.5497670000000  0.4603700000000  0.6063960000000 1.0
C      1  0.4502330000000  0.4603720000000  0.3936040000000 1.0
C      1  0.4502330000000  0.5396280000000  0.6063960000000 1.0
C      1  0.3936040000000  0.5396290000000  0.5497670000000 1.0
C      1  0.5396290000000  0.5497670000000  0.3936040000000 1.0
C      1  0.5497660000000  0.3936030000000  0.5396280000000 1.0
C      1  0.3936040000000  0.4603730000000  0.4502330000000 1.0
C      1  0.6063970000000  0.5396280000000  0.4502330000000 1.0
C      1  0.6063960000000  0.4603700000000  0.5497670000000 1.0
C      1  0.5396280000000  0.4502320000000  0.6063960000000 1.0
C      1  0.4603720000000  0.5497670000000  0.6063960000000 1.0
C      1  0.4603710000000  0.4502340000000  0.3936040000000 1.0
C      1  0.5497680000000  0.6063960000000  0.4603720000000 1.0
C      1  0.4502320000000  0.3936050000000  0.4603710000000 1.0
C      1  0.4502340000000  0.6063960000000  0.5396290000000 1.0
C      1  0.4969330000000  0.4290530000000  0.4180850000000 1.0
C      1  0.4180860000000  0.4969350000000  0.4290520000000 1.0
C      1  0.4290510000000  0.4180860000000  0.4969330000000 1.0
C      1  0.4969340000000  0.5709470000000  0.5819150000000 1.0
C      1  0.5030670000000  0.5709480000000  0.4180860000000 1.0
C      1  0.5030650000000  0.4290520000000  0.5819140000000 1.0
C      1  0.4180850000000  0.5030670000000  0.5709480000000 1.0
C      1  0.5819150000000  0.5030660000000  0.4290520000000 1.0
C      1  0.5819140000000  0.4969330000000  0.5709480000000 1.0
C      1  0.4290530000000  0.5819150000000  0.5030670000000 1.0
C      1  0.5709490000000  0.5819140000000  0.4969340000000 1.0
C      1  0.5709470000000  0.4180850000000  0.5030660000000 1.0
C      1  0.4969330000000  0.4180860000000  0.4290520000000 1.0
C      1  0.4180850000000  0.4290530000000  0.4969330000000 1.0
C      1  0.4290520000000  0.4969350000000  0.4180850000000 1.0
C      1  0.4969350000000  0.5819140000000  0.5709480000000 1.0
C      1  0.5030650000000  0.4180850000000  0.5709470000000 1.0
C      1  0.5030670000000  0.5819150000000  0.4290530000000 1.0
C      1  0.4180860000000  0.5709490000000  0.5030660000000 1.0
C      1  0.5819140000000  0.4290510000000  0.5030660000000 1.0
C      1  0.5819150000000  0.5709470000000  0.4969340000000 1.0
C      1  0.4290520000000  0.5030660000000  0.5819140000000 1.0
C      1  0.5709480000000  0.4969330000000  0.5819150000000 1.0
C      1  0.5709480000000  0.5030660000000  0.4180860000000 1.0
C      1  0.4102410000000  0.4565890000000  0.5148110000000 1.0
C      1  0.5148100000000  0.4102420000000  0.4565880000000 1.0
C      1  0.4565890000000  0.5148120000000  0.4102420000000 1.0
C      1  0.4102420000000  0.5434120000000  0.4851890000000 1.0
C      1  0.5897590000000  0.5434110000000  0.5148120000000 1.0
C      1  0.5897580000000  0.4565880000000  0.4851890000000 1.0
C      1  0.5148120000000  0.5897580000000  0.5434120000000 1.0
C      1  0.4851900000000  0.5897590000000  0.4565890000000 1.0
C      1  0.4851880000000  0.4102410000000  0.5434110000000 1.0
C      1  0.4565880000000  0.4851890000000  0.5897580000000 1.0
C      1  0.5434120000000  0.4851890000000  0.4102420000000 1.0
C      1  0.5434120000000  0.5148100000000  0.5897590000000 1.0
C      1  0.4102420000000  0.5148120000000  0.4565880000000 1.0
C      1  0.5148110000000  0.4565890000000  0.4102410000000 1.0
C      1  0.4565880000000  0.4102420000000  0.5148110000000 1.0
C      1  0.4102410000000  0.4851890000000  0.5434110000000 1.0
C      1  0.5897590000000  0.5148100000000  0.5434120000000 1.0
C      1  0.5897580000000  0.4851880000000  0.4565880000000 1.0
C      1  0.5148110000000  0.5434110000000  0.5897590000000 1.0
C      1  0.4851880000000  0.4565880000000  0.5897580000000 1.0
C      1  0.4851890000000  0.5434120000000  0.4102420000000 1.0
C      1  0.4565890000000  0.5897590000000  0.4851890000000 1.0
C      1  0.5434110000000  0.4102410000000  0.4851880000000 1.0
C      1  0.5434120000000  0.5897580000000  0.5148120000000 1.0
C      1  0.4803070000000  0.4435690000000  0.5871660000000 1.0
C      1  0.5871660000000  0.4803070000000  0.4435690000000 1.0
C      1  0.4435700000000  0.5871670000000  0.4803080000000 1.0
C      1  0.4803080000000  0.5564310000000  0.4128340000000 1.0
C      1  0.5196930000000  0.5564300000000  0.5871660000000 1.0
C      1  0.5196920000000  0.4435700000000  0.4128340000000 1.0
C      1  0.5871660000000  0.5196910000000  0.5564310000000 1.0
C      1  0.4128340000000  0.5196940000000  0.4435690000000 1.0
C      1  0.4128340000000  0.4803080000000  0.5564310000000 1.0
C      1  0.4435680000000  0.4128340000000  0.5196920000000 1.0
C      1  0.5564300000000  0.4128330000000  0.4803070000000 1.0
C      1  0.5564320000000  0.5871650000000  0.5196930000000 1.0
C      1  0.4803080000000  0.5871670000000  0.4435700000000 1.0
C      1  0.5871660000000  0.4435690000000  0.4803070000000 1.0
C      1  0.4435690000000  0.4803070000000  0.5871660000000 1.0
C      1  0.4803070000000  0.4128340000000  0.5564300000000 1.0
C      1  0.5196930000000  0.5871660000000  0.5564310000000 1.0
C      1  0.5196920000000  0.4128340000000  0.4435690000000 1.0
C      1  0.5871670000000  0.5564300000000  0.5196930000000 1.0
C      1  0.4128330000000  0.4435700000000  0.5196920000000 1.0
C      1  0.4128340000000  0.5564320000000  0.4803080000000 1.0
C      1  0.4435700000000  0.5196940000000  0.4128340000000 1.0
C      1  0.5564310000000  0.4803070000000  0.4128340000000 1.0
C      1  0.5564310000000  0.5196920000000  0.5871660000000 1.0
C      1  0.4364340000000  0.5898330000000  0.5130680000000 1.0
C      1  0.5130670000000  0.4364320000000  0.5898320000000 1.0
C      1  0.5898330000000  0.5130670000000  0.4364330000000 1.0
C      1  0.4364320000000  0.4101680000000  0.4869310000000 1.0
C      1  0.5635660000000  0.4101670000000  0.5130680000000 1.0
C      1  0.5635680000000  0.5898320000000  0.4869330000000 1.0
C      1  0.5130690000000  0.5635670000000  0.4101680000000 1.0
C      1  0.4869330000000  0.5635670000000  0.5898330000000 1.0
C      1  0.4869320000000  0.4364340000000  0.4101670000000 1.0
C      1  0.5898320000000  0.4869310000000  0.5635670000000 1.0
C      1  0.4101680000000  0.4869330000000  0.4364330000000 1.0
C      1  0.4101680000000  0.5130680000000  0.5635670000000 1.0
C      1  0.4364330000000  0.5130680000000  0.5898320000000 1.0
C      1  0.5130690000000  0.5898330000000  0.4364330000000 1.0
C      1  0.5898320000000  0.4364320000000  0.5130680000000 1.0
C      1  0.4364330000000  0.4869330000000  0.4101670000000 1.0
C      1  0.5635670000000  0.5130680000000  0.4101680000000 1.0
C      1  0.5635670000000  0.4869310000000  0.5898320000000 1.0
C      1  0.5130670000000  0.4101670000000  0.5635670000000 1.0
C      1  0.4869330000000  0.5898320000000  0.5635680000000 1.0
C      1  0.4869310000000  0.4101680000000  0.4364320000000 1.0
C      1  0.5898330000000  0.5635660000000  0.4869330000000 1.0
C      1  0.4101670000000  0.4364340000000  0.4869320000000 1.0
C      1  0.4101680000000  0.5635680000000  0.5130680000000 1.0
C      1  0.6014690000000  0.4806300000000  0.5280910000000 1.0
C      1  0.5280920000000  0.6014690000000  0.4806310000000 1.0
C      1  0.4806310000000  0.5280900000000  0.6014690000000 1.0
C      1  0.6014700000000  0.5193680000000  0.4719090000000 1.0
C      1  0.3985310000000  0.5193700000000  0.5280910000000 1.0
C      1  0.3985310000000  0.4806320000000  0.4719090000000 1.0
C      1  0.5280900000000  0.3985300000000  0.5193690000000 1.0
C      1  0.4719080000000  0.3985310000000  0.4806300000000 1.0
C      1  0.4719100000000  0.6014690000000  0.5193700000000 1.0
C      1  0.4806310000000  0.4719100000000  0.3985310000000 1.0
C      1  0.5193690000000  0.4719080000000  0.6014690000000 1.0
C      1  0.5193700000000  0.5280910000000  0.3985310000000 1.0
C      1  0.6014700000000  0.5280900000000  0.4806310000000 1.0
C      1  0.5280910000000  0.4806300000000  0.6014690000000 1.0
C      1  0.4806320000000  0.6014690000000  0.5280910000000 1.0
C      1  0.6014690000000  0.4719080000000  0.5193690000000 1.0
C      1  0.3985310000000  0.5280920000000  0.5193690000000 1.0
C      1  0.3985300000000  0.4719100000000  0.4806310000000 1.0
C      1  0.5280910000000  0.5193690000000  0.3985310000000 1.0
C      1  0.4719090000000  0.4806320000000  0.3985310000000 1.0
C      1  0.4719090000000  0.5193690000000  0.6014690000000 1.0
C      1  0.4806300000000  0.3985310000000  0.4719090000000 1.0
C      1  0.5193700000000  0.6014690000000  0.4719100000000 1.0
C      1  0.5193680000000  0.3985300000000  0.5280900000000 1.0
C      1  0.5324160000000  0.5882460000000  0.5238310000000 1.0
C      1  0.5238310000000  0.5324150000000  0.5882470000000 1.0
C      1  0.5882470000000  0.5238300000000  0.5324160000000 1.0
C      1  0.5324150000000  0.4117530000000  0.4761690000000 1.0
C      1  0.4675840000000  0.4117530000000  0.5238300000000 1.0
C      1  0.4675850000000  0.5882470000000  0.4761700000000 1.0
C      1  0.5238310000000  0.4675850000000  0.4117530000000 1.0
C      1  0.4761690000000  0.4675840000000  0.5882470000000 1.0
C      1  0.4761700000000  0.5324160000000  0.4117530000000 1.0
C      1  0.5882470000000  0.4761680000000  0.4675840000000 1.0
C      1  0.4117530000000  0.4761700000000  0.5324150000000 1.0
C      1  0.4117530000000  0.5238320000000  0.4675850000000 1.0
C      1  0.5324160000000  0.5238300000000  0.5882470000000 1.0
C      1  0.5238320000000  0.5882460000000  0.5324160000000 1.0
C      1  0.5882470000000  0.5324150000000  0.5238310000000 1.0
C      1  0.5324150000000  0.4761690000000  0.4117530000000 1.0
C      1  0.4675850000000  0.5238320000000  0.4117530000000 1.0
C      1  0.4675840000000  0.4761690000000  0.5882470000000 1.0
C      1  0.5238300000000  0.4117530000000  0.4675840000000 1.0
C      1  0.4761700000000  0.5882470000000  0.4675850000000 1.0
C      1  0.4761680000000  0.4117530000000  0.5324150000000 1.0
C      1  0.5882470000000  0.4675840000000  0.4761690000000 1.0
C      1  0.4117530000000  0.5324160000000  0.4761690000000 1.0
C      1  0.4117530000000  0.4675850000000  0.5238310000000 1.0
C      1  0.6042590000000  0.5419090000000  0.4827510000000 1.0
C      1  0.4827520000000  0.6042590000000  0.5419110000000 1.0
C      1  0.5419100000000  0.4827500000000  0.6042590000000 1.0
C      1  0.6042590000000  0.4580890000000  0.5172490000000 1.0
C      1  0.3957410000000  0.4580910000000  0.4827510000000 1.0
C      1  0.3957410000000  0.5419110000000  0.5172490000000 1.0
C      1  0.4827500000000  0.3957410000000  0.4580890000000 1.0
C      1  0.5172480000000  0.3957410000000  0.5419100000000 1.0
C      1  0.5172500000000  0.6042590000000  0.4580900000000 1.0
C      1  0.5419110000000  0.5172490000000  0.3957410000000 1.0
C      1  0.4580900000000  0.5172490000000  0.6042590000000 1.0
C      1  0.4580900000000  0.4827520000000  0.3957410000000 1.0
C      1  0.6042590000000  0.4827500000000  0.5419100000000 1.0
C      1  0.4827510000000  0.5419100000000  0.6042590000000 1.0
C      1  0.5419110000000  0.6042590000000  0.4827520000000 1.0
C      1  0.6042590000000  0.5172480000000  0.4580900000000 1.0
C      1  0.3957410000000  0.4827520000000  0.4580890000000 1.0
C      1  0.3957410000000  0.5172500000000  0.5419100000000 1.0
C      1  0.4827510000000  0.4580900000000  0.3957410000000 1.0
C      1  0.5172500000000  0.5419110000000  0.3957410000000 1.0
C      1  0.5172490000000  0.4580890000000  0.6042590000000 1.0
C      1  0.5419090000000  0.3957400000000  0.5172490000000 1.0
C      1  0.4580910000000  0.6042590000000  0.5172500000000 1.0
C      1  0.4580890000000  0.3957410000000  0.4827500000000 1.0
C      1  0.4733370000000  0.5918200000000  0.5667460000000 1.0
C      1  0.5667450000000  0.4733350000000  0.5918200000000 1.0
C      1  0.5918210000000  0.5667450000000  0.4733370000000 1.0
C      1  0.4733350000000  0.4081800000000  0.4332540000000 1.0
C      1  0.5266630000000  0.4081790000000  0.5667450000000 1.0
C      1  0.5266650000000  0.5918210000000  0.4332550000000 1.0
C      1  0.5667460000000  0.5266640000000  0.4081800000000 1.0
C      1  0.4332550000000  0.5266640000000  0.5918210000000 1.0
C      1  0.4332550000000  0.4733370000000  0.4081790000000 1.0
C      1  0.5918200000000  0.4332540000000  0.5266640000000 1.0
C      1  0.4081790000000  0.4332560000000  0.4733360000000 1.0
C      1  0.4081800000000  0.5667460000000  0.5266640000000 1.0
C      1  0.4733370000000  0.5667450000000  0.5918210000000 1.0
C      1  0.5667460000000  0.5918200000000  0.4733370000000 1.0
C      1  0.5918200000000  0.4733350000000  0.5667450000000 1.0
C      1  0.4733360000000  0.4332560000000  0.4081790000000 1.0
C      1  0.5266650000000  0.5667450000000  0.4081800000000 1.0
C      1  0.5266630000000  0.4332540000000  0.5918200000000 1.0
C      1  0.5667440000000  0.4081790000000  0.5266630000000 1.0
C      1  0.4332560000000  0.5918210000000  0.5266640000000 1.0
C      1  0.4332540000000  0.4081800000000  0.4733360000000 1.0
C      1  0.5918210000000  0.5266630000000  0.4332550000000 1.0
C      1  0.4081790000000  0.4733370000000  0.4332550000000 1.0
C      1  0.4081800000000  0.5266640000000  0.5667450000000 1.0
C      1  0.5576440000000  0.5327810000000  0.5810640000000 1.0
C      1  0.5810640000000  0.5576430000000  0.5327830000000 1.0
C      1  0.5327830000000  0.5810630000000  0.5576440000000 1.0
C      1  0.5576430000000  0.4672180000000  0.4189360000000 1.0
C      1  0.4423560000000  0.4672180000000  0.5810630000000 1.0
C      1  0.4423570000000  0.5327830000000  0.4189360000000 1.0
C      1  0.5810630000000  0.4423560000000  0.4672180000000 1.0
C      1  0.4189360000000  0.4423570000000  0.5327820000000 1.0
C      1  0.4189370000000  0.5576450000000  0.4672180000000 1.0
C      1  0.5327820000000  0.4189360000000  0.4423560000000 1.0
C      1  0.4672170000000  0.4189360000000  0.5576430000000 1.0
C      1  0.4672190000000  0.5810640000000  0.4423570000000 1.0
C      1  0.5576440000000  0.5810630000000  0.5327830000000 1.0
C      1  0.5810640000000  0.5327810000000  0.5576440000000 1.0
C      1  0.5327830000000  0.5576430000000  0.5810640000000 1.0
C      1  0.5576430000000  0.4189360000000  0.4672170000000 1.0
C      1  0.4423570000000  0.5810640000000  0.4672180000000 1.0
C      1  0.4423560000000  0.4189370000000  0.5327820000000 1.0
C      1  0.5810630000000  0.4672170000000  0.4423560000000 1.0
C      1  0.4189370000000  0.5327830000000  0.4423560000000 1.0
C      1  0.4189360000000  0.4672180000000  0.5576430000000 1.0
C      1  0.5327820000000  0.4423570000000  0.4189360000000 1.0
C      1  0.4672180000000  0.5576440000000  0.4189370000000 1.0
C      1  0.4672170000000  0.4423560000000  0.5810630000000 1.0
C      1  0.5759120000000  0.5356060000000  0.4146920000000 1.0
C      1  0.4146920000000  0.5759120000000  0.5356070000000 1.0
C      1  0.5356060000000  0.4146910000000  0.5759110000000 1.0
C      1  0.5759110000000  0.4643920000000  0.5853080000000 1.0
C      1  0.4240880000000  0.4643950000000  0.4146920000000 1.0
C      1  0.4240880000000  0.5356070000000  0.5853080000000 1.0
C      1  0.4146910000000  0.4240890000000  0.4643930000000 1.0
C      1  0.5853070000000  0.4240870000000  0.5356060000000 1.0
C      1  0.5853090000000  0.5759110000000  0.4643940000000 1.0
C      1  0.5356070000000  0.5853080000000  0.4240890000000 1.0
C      1  0.4643940000000  0.5853080000000  0.5759120000000 1.0
C      1  0.4643930000000  0.4146930000000  0.4240880000000 1.0
C      1  0.5759110000000  0.4146910000000  0.5356060000000 1.0
C      1  0.4146920000000  0.5356070000000  0.5759120000000 1.0
C      1  0.5356070000000  0.5759120000000  0.4146920000000 1.0
C      1  0.5759130000000  0.5853080000000  0.4643940000000 1.0
C      1  0.4240870000000  0.4146930000000  0.4643930000000 1.0
C      1  0.4240890000000  0.5853090000000  0.5356070000000 1.0
C      1  0.4146920000000  0.4643950000000  0.4240880000000 1.0
C      1  0.5853090000000  0.5356060000000  0.4240880000000 1.0
C      1  0.5853080000000  0.4643920000000  0.5759120000000 1.0
C      1  0.5356060000000  0.4240870000000  0.5853080000000 1.0
C      1  0.4643940000000  0.5759120000000  0.5853090000000 1.0
C      1  0.4643930000000  0.4240890000000  0.4146910000000 1.0
C      1  0.5473760000000  0.5681020000000  0.4120350000000 1.0
C      1  0.4120350000000  0.5473760000000  0.5681020000000 1.0
C      1  0.5681010000000  0.4120330000000  0.5473750000000 1.0
C      1  0.5473750000000  0.4318980000000  0.5879660000000 1.0
C      1  0.4526240000000  0.4318990000000  0.4120340000000 1.0
C      1  0.4526250000000  0.5681010000000  0.5879660000000 1.0
C      1  0.4120340000000  0.4526260000000  0.4318980000000 1.0
C      1  0.5879650000000  0.4526230000000  0.5681010000000 1.0
C      1  0.5879660000000  0.5473750000000  0.4318990000000 1.0
C      1  0.5681020000000  0.5879650000000  0.4526250000000 1.0
C      1  0.4318990000000  0.5879660000000  0.5473760000000 1.0
C      1  0.4318980000000  0.4120350000000  0.4526240000000 1.0
C      1  0.5473740000000  0.4120330000000  0.5681010000000 1.0
C      1  0.4120350000000  0.5681020000000  0.5473760000000 1.0
C      1  0.5681020000000  0.5473750000000  0.4120340000000 1.0
C      1  0.5473760000000  0.5879660000000  0.4318990000000 1.0
C      1  0.4526240000000  0.4120350000000  0.4318980000000 1.0
C      1  0.4526250000000  0.5879660000000  0.5681020000000 1.0
C      1  0.4120340000000  0.4319000000000  0.4526240000000 1.0
C      1  0.5879670000000  0.5681010000000  0.4526250000000 1.0
C      1  0.5879650000000  0.4318970000000  0.5473750000000 1.0
C      1  0.5681010000000  0.4526230000000  0.5879660000000 1.0
C      1  0.4318990000000  0.5473760000000  0.5879660000000 1.0
C      1  0.4318980000000  0.4526260000000  0.4120340000000 1.0
C      1  0.5574040000000  0.5839260000000  0.5466760000000 1.0
C      1  0.5466760000000  0.5574030000000  0.5839270000000 1.0
C      1  0.5839270000000  0.5466750000000  0.5574040000000 1.0
C      1  0.5574030000000  0.4160730000000  0.4533240000000 1.0
C      1  0.4425960000000  0.4160730000000  0.5466750000000 1.0
C      1  0.4425970000000  0.5839280000000  0.4533250000000 1.0
C      1  0.5466750000000  0.4425970000000  0.4160730000000 1.0
C      1  0.4533230000000  0.4425960000000  0.5839270000000 1.0
C      1  0.4533250000000  0.5574040000000  0.4160730000000 1.0
C      1  0.5839270000000  0.4533240000000  0.4425960000000 1.0
C      1  0.4160720000000  0.4533250000000  0.5574030000000 1.0
C      1  0.4160740000000  0.5466770000000  0.4425970000000 1.0
C      1  0.5574040000000  0.5466750000000  0.5839270000000 1.0
C      1  0.5466770000000  0.5839260000000  0.5574040000000 1.0
C      1  0.5839270000000  0.5574020000000  0.5466760000000 1.0
C      1  0.5574030000000  0.4533240000000  0.4160730000000 1.0
C      1  0.4425970000000  0.5466770000000  0.4160730000000 1.0
C      1  0.4425960000000  0.4533240000000  0.5839270000000 1.0
C      1  0.5466750000000  0.4160730000000  0.4425960000000 1.0
C      1  0.4533250000000  0.5839280000000  0.4425970000000 1.0
C      1  0.4533230000000  0.4160730000000  0.5574030000000 1.0
C      1  0.5839270000000  0.4425960000000  0.4533240000000 1.0
C      1  0.4160740000000  0.5574050000000  0.4533240000000 1.0
C      1  0.4160720000000  0.4425970000000  0.5466750000000 1.0
C      1  0.4727610000000  0.4531720000000  0.3878280000000 1.0
C      1  0.3878280000000  0.4727630000000  0.4531700000000 1.0
C      1  0.4531700000000  0.3878290000000  0.4727610000000 1.0
C      1  0.4727620000000  0.5468290000000  0.6121720000000 1.0
C      1  0.5272390000000  0.5468300000000  0.3878280000000 1.0
C      1  0.5272380000000  0.4531700000000  0.6121720000000 1.0
C      1  0.3878280000000  0.5272390000000  0.5468290000000 1.0
C      1  0.6121720000000  0.5272380000000  0.4531710000000 1.0
C      1  0.6121710000000  0.4727600000000  0.5468290000000 1.0
C      1  0.4531720000000  0.6121720000000  0.5272390000000 1.0
C      1  0.5468300000000  0.6121720000000  0.4727620000000 1.0
C      1  0.5468280000000  0.3878280000000  0.5272380000000 1.0
C      1  0.4727610000000  0.3878290000000  0.4531700000000 1.0
C      1  0.3878280000000  0.4531720000000  0.4727610000000 1.0
C      1  0.4531710000000  0.4727630000000  0.3878280000000 1.0
C      1  0.4727630000000  0.6121720000000  0.5468300000000 1.0
C      1  0.5272370000000  0.3878280000000  0.5468290000000 1.0
C      1  0.5272400000000  0.6121720000000  0.4531710000000 1.0
C      1  0.3878290000000  0.5468300000000  0.5272390000000 1.0
C      1  0.6121710000000  0.4531700000000  0.5272380000000 1.0
C      1  0.6121720000000  0.5468280000000  0.4727620000000 1.0
C      1  0.4531710000000  0.5272380000000  0.6121720000000 1.0
C      1  0.5468290000000  0.4727600000000  0.6121720000000 1.0
C      1  0.5468300000000  0.5272390000000  0.3878280000000 1.0
C      1  0.4335600000000  0.5562920000000  0.4696820000000 1.0
C      1  0.4696810000000  0.4335600000000  0.5562910000000 1.0
C      1  0.5562910000000  0.4696820000000  0.4335600000000 1.0
C      1  0.4335590000000  0.4437090000000  0.5303180000000 1.0
C      1  0.5664400000000  0.4437080000000  0.4696820000000 1.0
C      1  0.5664410000000  0.5562910000000  0.5303190000000 1.0
C      1  0.4696830000000  0.5664410000000  0.4437090000000 1.0
C      1  0.5303190000000  0.5664400000000  0.5562920000000 1.0
C      1  0.5303180000000  0.4335600000000  0.4437080000000 1.0
C      1  0.5562920000000  0.5303170000000  0.5664410000000 1.0
C      1  0.4437090000000  0.5303190000000  0.4335600000000 1.0
C      1  0.4437080000000  0.4696820000000  0.5664400000000 1.0
C      1  0.4335590000000  0.4696820000000  0.5562910000000 1.0
C      1  0.4696820000000  0.5562920000000  0.4335600000000 1.0
C      1  0.5562910000000  0.4335590000000  0.4696820000000 1.0
C      1  0.4335600000000  0.5303190000000  0.4437080000000 1.0
C      1  0.5664400000000  0.4696810000000  0.4437080000000 1.0
C      1  0.5664410000000  0.5303170000000  0.5562920000000 1.0
C      1  0.4696810000000  0.4437080000000  0.5664400000000 1.0
C      1  0.5303190000000  0.5562910000000  0.5664410000000 1.0
C      1  0.5303180000000  0.4437080000000  0.4335590000000 1.0
C      1  0.5562920000000  0.5664400000000  0.5303190000000 1.0
C      1  0.4437080000000  0.4335600000000  0.5303180000000 1.0
C      1  0.4437090000000  0.5664410000000  0.4696820000000 1.0
C      1  0.4042130000000  0.5092590000000  0.5503610000000 1.0
C      1  0.5503600000000  0.4042130000000  0.5092580000000 1.0
C      1  0.5092590000000  0.5503620000000  0.4042130000000 1.0
C      1  0.4042130000000  0.4907430000000  0.4496390000000 1.0
C      1  0.5957870000000  0.4907400000000  0.5503610000000 1.0
C      1  0.5957870000000  0.5092580000000  0.4496390000000 1.0
C      1  0.5503620000000  0.5957860000000  0.4907420000000 1.0
C      1  0.4496400000000  0.5957870000000  0.5092590000000 1.0
C      1  0.4496380000000  0.4042140000000  0.4907410000000 1.0
C      1  0.5092580000000  0.4496380000000  0.5957870000000 1.0
C      1  0.4907410000000  0.4496400000000  0.4042130000000 1.0
C      1  0.4907420000000  0.5503610000000  0.5957870000000 1.0
C      1  0.4042140000000  0.5503620000000  0.5092590000000 1.0
C      1  0.5503610000000  0.5092580000000  0.4042130000000 1.0
C      1  0.5092570000000  0.4042130000000  0.5503610000000 1.0
C      1  0.4042130000000  0.4496400000000  0.4907410000000 1.0
C      1  0.5957870000000  0.5503600000000  0.4907420000000 1.0
C      1  0.5957860000000  0.4496380000000  0.5092580000000 1.0
C      1  0.5503610000000  0.4907410000000  0.5957870000000 1.0
C      1  0.4496390000000  0.5092580000000  0.5957870000000 1.0
C      1  0.4496390000000  0.4907430000000  0.4042130000000 1.0
C      1  0.5092590000000  0.5957870000000  0.4496390000000 1.0
C      1  0.4907410000000  0.4042140000000  0.4496380000000 1.0
C      1  0.4907420000000  0.5957870000000  0.5503620000000 1.0
C      1  0.4031640000000  0.4400230000000  0.4612110000000 1.0
C      1  0.4612110000000  0.4031650000000  0.4400220000000 1.0
C      1  0.4400220000000  0.4612130000000  0.4031640000000 1.0
C      1  0.4031650000000  0.5599780000000  0.5387890000000 1.0
C      1  0.5968360000000  0.5599770000000  0.4612120000000 1.0
C      1  0.5968350000000  0.4400210000000  0.5387880000000 1.0
C      1  0.4612120000000  0.5968350000000  0.5599780000000 1.0
C      1  0.5387900000000  0.5968350000000  0.4400230000000 1.0
C      1  0.5387880000000  0.4031640000000  0.5599770000000 1.0
C      1  0.4400230000000  0.5387890000000  0.5968350000000 1.0
C      1  0.5599780000000  0.5387890000000  0.4031650000000 1.0
C      1  0.5599770000000  0.4612100000000  0.5968350000000 1.0
C      1  0.4031640000000  0.4612130000000  0.4400220000000 1.0
C      1  0.4612110000000  0.4400230000000  0.4031640000000 1.0
C      1  0.4400210000000  0.4031660000000  0.4612110000000 1.0
C      1  0.4031650000000  0.5387890000000  0.5599780000000 1.0
C      1  0.5968350000000  0.4612100000000  0.5599780000000 1.0
C      1  0.5968360000000  0.5387880000000  0.4400230000000 1.0
C      1  0.4612120000000  0.5599770000000  0.5968360000000 1.0
C      1  0.5387880000000  0.4400210000000  0.5968350000000 1.0
C      1  0.5387890000000  0.5599780000000  0.4031650000000 1.0
C      1  0.4400230000000  0.5968360000000  0.5387890000000 1.0
C      1  0.5599770000000  0.4031640000000  0.5387880000000 1.0
C      1  0.5599790000000  0.5968350000000  0.4612120000000 1.0
C      1  0.4312210000000  0.4414670000000  0.4208370000000 1.0
C      1  0.4208370000000  0.4312220000000  0.4414650000000 1.0
C      1  0.4414650000000  0.4208380000000  0.4312210000000 1.0
C      1  0.4312220000000  0.5585350000000  0.5791630000000 1.0
C      1  0.5687790000000  0.5585340000000  0.4208380000000 1.0
C      1  0.5687780000000  0.4414650000000  0.5791630000000 1.0
C      1  0.4208380000000  0.5687790000000  0.5585350000000 1.0
C      1  0.5791630000000  0.5687780000000  0.4414660000000 1.0
C      1  0.5791620000000  0.4312200000000  0.5585340000000 1.0
C      1  0.4414660000000  0.5791630000000  0.5687790000000 1.0
C      1  0.5585350000000  0.5791630000000  0.4312220000000 1.0
C      1  0.5585330000000  0.4208360000000  0.5687780000000 1.0
C      1  0.4312210000000  0.4208380000000  0.4414650000000 1.0
C      1  0.4208370000000  0.4414670000000  0.4312210000000 1.0
C      1  0.4414650000000  0.4312220000000  0.4208370000000 1.0
C      1  0.4312220000000  0.5791630000000  0.5585350000000 1.0
C      1  0.5687780000000  0.4208360000000  0.5585340000000 1.0
C      1  0.5687800000000  0.5791620000000  0.4414660000000 1.0
C      1  0.4208380000000  0.5585350000000  0.5687790000000 1.0
C      1  0.5791620000000  0.4414650000000  0.5687780000000 1.0
C      1  0.5791630000000  0.5585340000000  0.4312220000000 1.0
C      1  0.4414660000000  0.5687790000000  0.5791630000000 1.0
C      1  0.5585340000000  0.4312200000000  0.5791620000000 1.0
C      1  0.5585350000000  0.5687790000000  0.4208380000000 1.0
C      1  0.4429180000000  0.4633470000000  0.5466400000000 1.0
C      1  0.5466400000000  0.4429180000000  0.4633460000000 1.0
C      1  0.4633470000000  0.5466410000000  0.4429190000000 1.0
C      1  0.4429190000000  0.5366540000000  0.4533600000000 1.0
C      1  0.5570820000000  0.5366530000000  0.5466410000000 1.0
C      1  0.5570810000000  0.4633460000000  0.4533590000000 1.0
C      1  0.5466410000000  0.5570810000000  0.5366540000000 1.0
C      1  0.4533600000000  0.5570820000000  0.4633470000000 1.0
C      1  0.4533590000000  0.4429190000000  0.5366530000000 1.0
C      1  0.4633460000000  0.4533600000000  0.5570810000000 1.0
C      1  0.5366530000000  0.4533600000000  0.4429180000000 1.0
C      1  0.5366540000000  0.5466400000000  0.5570820000000 1.0
C      1  0.4429190000000  0.5466410000000  0.4633470000000 1.0
C      1  0.5466400000000  0.4633460000000  0.4429180000000 1.0
C      1  0.4633460000000  0.4429190000000  0.5466400000000 1.0
C      1  0.4429180000000  0.4533600000000  0.5366530000000 1.0
C      1  0.5570820000000  0.5466400000000  0.5366540000000 1.0
C      1  0.5570810000000  0.4533590000000  0.4633460000000 1.0
C      1  0.5466410000000  0.5366530000000  0.5570820000000 1.0
C      1  0.4533590000000  0.4633470000000  0.5570810000000 1.0
C      1  0.4533600000000  0.5366540000000  0.4429190000000 1.0
C      1  0.4633470000000  0.5570820000000  0.4533600000000 1.0
C      1  0.5366530000000  0.4429180000000  0.4533590000000 1.0
C      1  0.5366540000000  0.5570810000000  0.5466410000000 1.0
C      1  0.4326190000000  0.4887650000000  0.5836800000000 1.0
C      1  0.5836800000000  0.4326180000000  0.4887640000000 1.0
C      1  0.4887660000000  0.5836810000000  0.4326190000000 1.0
C      1  0.4326190000000  0.5112360000000  0.4163200000000 1.0
C      1  0.5673810000000  0.5112340000000  0.5836810000000 1.0
C      1  0.5673810000000  0.4887650000000  0.4163200000000 1.0
C      1  0.5836810000000  0.5673800000000  0.5112360000000 1.0
C      1  0.4163200000000  0.5673820000000  0.4887650000000 1.0
C      1  0.4163190000000  0.4326200000000  0.5112350000000 1.0
C      1  0.4887640000000  0.4163190000000  0.5673810000000 1.0
C      1  0.5112350000000  0.4163200000000  0.4326180000000 1.0
C      1  0.5112360000000  0.5836800000000  0.5673820000000 1.0
C      1  0.4326200000000  0.5836810000000  0.4887650000000 1.0
C      1  0.5836800000000  0.4887640000000  0.4326190000000 1.0
C      1  0.4887640000000  0.4326180000000  0.5836800000000 1.0
C      1  0.4326180000000  0.4163200000000  0.5112350000000 1.0
C      1  0.5673820000000  0.5836800000000  0.5112360000000 1.0
C      1  0.5673800000000  0.4163190000000  0.4887640000000 1.0
C      1  0.5836800000000  0.5112340000000  0.5673810000000 1.0
C      1  0.4163190000000  0.4887650000000  0.5673810000000 1.0
C      1  0.4163200000000  0.5112360000000  0.4326190000000 1.0
C      1  0.4887650000000  0.5673820000000  0.4163200000000 1.0
C      1  0.5112350000000  0.4326190000000  0.4163190000000 1.0
C      1  0.5112360000000  0.5673810000000  0.5836810000000 1.0
C      1  0.5929640000000  0.5016400000000  0.5430670000000 1.0
C      1  0.5430680000000  0.5929640000000  0.5016410000000 1.0
C      1  0.5016410000000  0.5430660000000  0.5929640000000 1.0
C      1  0.5929640000000  0.4983590000000  0.4569330000000 1.0
C      1  0.4070360000000  0.4983600000000  0.5430670000000 1.0
C      1  0.4070360000000  0.5016420000000  0.4569330000000 1.0
C      1  0.5430660000000  0.4070350000000  0.4983590000000 1.0
C      1  0.4569320000000  0.4070360000000  0.5016400000000 1.0
C      1  0.4569340000000  0.5929650000000  0.4983600000000 1.0
C      1  0.5016410000000  0.4569340000000  0.4070360000000 1.0
C      1  0.4983590000000  0.4569330000000  0.5929640000000 1.0
C      1  0.4983600000000  0.5430670000000  0.4070360000000 1.0
C      1  0.5929650000000  0.5430660000000  0.5016410000000 1.0
C      1  0.5430670000000  0.5016400000000  0.5929640000000 1.0
C      1  0.5016420000000  0.5929640000000  0.5430670000000 1.0
C      1  0.5929640000000  0.4569320000000  0.4983590000000 1.0
C      1  0.4070360000000  0.5430680000000  0.4983590000000 1.0
C      1  0.4070350000000  0.4569340000000  0.5016400000000 1.0
C      1  0.5430670000000  0.4983590000000  0.4070360000000 1.0
C      1  0.4569330000000  0.5016420000000  0.4070360000000 1.0
C      1  0.4569330000000  0.4983590000000  0.5929640000000 1.0
C      1  0.5016400000000  0.4070360000000  0.4569330000000 1.0
C      1  0.4983600000000  0.5929640000000  0.4569340000000 1.0
C      1  0.4983580000000  0.4070360000000  0.5430660000000 1.0
C      1  0.5559000000000  0.4240360000000  0.4339190000000 1.0
C      1  0.4339200000000  0.5559020000000  0.4240360000000 1.0
C      1  0.4240350000000  0.4339190000000  0.5559000000000 1.0
C      1  0.5559020000000  0.5759630000000  0.5660810000000 1.0
C      1  0.4441000000000  0.5759650000000  0.4339190000000 1.0
C      1  0.4440980000000  0.4240360000000  0.5660800000000 1.0
C      1  0.4339180000000  0.4440990000000  0.5759640000000 1.0
C      1  0.5660810000000  0.4440990000000  0.4240360000000 1.0
C      1  0.5660810000000  0.5559000000000  0.5759650000000 1.0
C      1  0.4240360000000  0.5660820000000  0.4440990000000 1.0
C      1  0.5759650000000  0.5660800000000  0.5559010000000 1.0
C      1  0.5759640000000  0.4339190000000  0.4440990000000 1.0
C      1  0.5559000000000  0.4339190000000  0.4240360000000 1.0
C      1  0.4339180000000  0.4240360000000  0.5559000000000 1.0
C      1  0.4240360000000  0.5559020000000  0.4339190000000 1.0
C      1  0.5559010000000  0.5660800000000  0.5759650000000 1.0
C      1  0.4440980000000  0.4339190000000  0.5759640000000 1.0
C      1  0.4441000000000  0.5660820000000  0.4240360000000 1.0
C      1  0.4339200000000  0.5759650000000  0.4440990000000 1.0
C      1  0.5660800000000  0.4240350000000  0.4440990000000 1.0
C      1  0.5660820000000  0.5759630000000  0.5559010000000 1.0
C      1  0.4240350000000  0.4440990000000  0.5660810000000 1.0
C      1  0.5759650000000  0.5559000000000  0.5660810000000 1.0
C      1  0.5759640000000  0.4440990000000  0.4339190000000 1.0
C      1  0.5187010000000  0.4239940000000  0.4239930000000 1.0
C      1  0.5760060000000  0.4812980000000  0.4239940000000 1.0
C      1  0.4239940000000  0.4812990000000  0.5760060000000 1.0
C      1  0.4239940000000  0.5187030000000  0.4239940000000 1.0
C      1  0.4812990000000  0.5760070000000  0.4239940000000 1.0
C      1  0.4812980000000  0.4239940000000  0.5760060000000 1.0
C      1  0.5760050000000  0.4239930000000  0.4812980000000 1.0
C      1  0.5187020000000  0.5760060000000  0.5760070000000 1.0
C      1  0.5760070000000  0.5760050000000  0.5187020000000 1.0
C      1  0.4239930000000  0.4239940000000  0.5187010000000 1.0
C      1  0.4239950000000  0.5760070000000  0.4812990000000 1.0
C      1  0.5760060000000  0.5187000000000  0.5760060000000 1.0
END
