TITL C-66628-1407-11 22.4846202226264 1000000 -3643.28463139242 0 0 540 (C1) n - 1
REM
REM in /home/chem/mssmkc/work/GAP20/Larger-Clusters/Only-C240/New/BUILD-ONLY/Try2-C540
REM
REM
REM
REM
REM
REM ./C.cell (4d22446d3c8a03e2533cb19ef5564aa4)
REM
REM compiler GCC version 8.3.0
REM options -cpp -mtune=generic -march=x86-64 -g -O0
REM seed 226562756 117428408 1821972043 -5612344 1596749723 -844072343 -646765450 189002119 -518293885 1475479214 1444325908 1532003432 -1057157750 910665538 -1968263273 1769679751 784363528 -1986820186 2133168875 -523264341 -827958030 -1724094991 -1249828237 475010780 -1793033466 -708657679 -1286292429 1729580678 -1575737628 2111414873 378771806 -1009440241 -473986477
REM
CELL 1.54180  100.00000  100.00000  100.00000   90.00000   90.00000   90.00000
LATT -1
SFAC C  
C      1  0.4598640000000  0.4173720000000  0.5533560000000 1.0
C      1  0.4247000000000  0.5476740000000  0.4545040000000 1.0
C      1  0.5685100000000  0.4689790000000  0.3836850000000 1.0
C      1  0.4760130000000  0.5781830000000  0.4580110000000 1.0
C      1  0.5335840000000  0.4090780000000  0.4505310000000 1.0
C      1  0.5199810000000  0.6196210000000  0.5637720000000 1.0
C      1  0.4135400000000  0.4558940000000  0.5464100000000 1.0
C      1  0.5819590000000  0.5438450000000  0.5450600000000 1.0
C      1  0.5837620000000  0.4532370000000  0.4409760000000 1.0
C      1  0.5697440000000  0.5237590000000  0.6034870000000 1.0
C      1  0.4494900000000  0.4705290000000  0.5872710000000 1.0
C      1  0.4557310000000  0.5173080000000  0.4522660000000 1.0
C      1  0.5363670000000  0.4206030000000  0.5451460000000 1.0
C      1  0.5971370000000  0.5662850000000  0.4745130000000 1.0
C      1  0.4515800000000  0.4559380000000  0.4212790000000 1.0
C      1  0.5365770000000  0.5701390000000  0.4602650000000 1.0
C      1  0.4729020000000  0.4014930000000  0.4664170000000 1.0
C      1  0.4532540000000  0.5989050000000  0.5663030000000 1.0
C      1  0.5852910000000  0.4615800000000  0.5115180000000 1.0
C      1  0.4015080000000  0.5620150000000  0.5210060000000 1.0
C      1  0.4230440000000  0.4633970000000  0.4802900000000 1.0
C      1  0.4482150000000  0.5439790000000  0.5892270000000 1.0
C      1  0.5535390000000  0.4535870000000  0.5843920000000 1.0
C      1  0.5422210000000  0.5351390000000  0.4023850000000 1.0
C      1  0.4228350000000  0.5753030000000  0.5059490000000 1.0
C      1  0.5746630000000  0.5203120000000  0.4097850000000 1.0
C      1  0.5128490000000  0.4373980000000  0.5679500000000 1.0
C      1  0.4214260000000  0.4309270000000  0.4939760000000 1.0
C      1  0.5675750000000  0.5696400000000  0.4959250000000 1.0
C      1  0.5770850000000  0.4433130000000  0.4988260000000 1.0
C      1  0.5829220000000  0.4754500000000  0.5858220000000 1.0
C      1  0.4199090000000  0.5216460000000  0.5813680000000 1.0
C      1  0.4200550000000  0.4785260000000  0.4282800000000 1.0
C      1  0.5159500000000  0.5647040000000  0.4250430000000 1.0
C      1  0.4811870000000  0.4204210000000  0.4300440000000 1.0
C      1  0.4798930000000  0.5780160000000  0.5797780000000 1.0
C      1  0.5829140000000  0.5746190000000  0.5250910000000 1.0
C      1  0.4257510000000  0.5047750000000  0.4435630000000 1.0
C      1  0.4819770000000  0.4388300000000  0.5707080000000 1.0
C      1  0.5684880000000  0.4335650000000  0.4730720000000 1.0
C      1  0.4399020000000  0.5647610000000  0.4863910000000 1.0
C      1  0.4254630000000  0.4292400000000  0.5239530000000 1.0
C      1  0.4233350000000  0.4925350000000  0.5746720000000 1.0
C      1  0.5750820000000  0.5063740000000  0.5726810000000 1.0
C      1  0.5757480000000  0.4879300000000  0.4137590000000 1.0
C      1  0.4912310000000  0.5834670000000  0.4243160000000 1.0
C      1  0.5106640000000  0.4123920000000  0.4221820000000 1.0
C      1  0.5088300000000  0.5904720000000  0.5817150000000 1.0
C      1  0.4423880000000  0.3938620000000  0.4847430000000 1.0
C      1  0.3916070000000  0.4854230000000  0.4330480000000 1.0
C      1  0.5056750000000  0.4526610000000  0.4001510000000 1.0
C      1  0.4413880000000  0.5999920000000  0.4973570000000 1.0
C      1  0.5531390000000  0.3996090000000  0.4920280000000 1.0
C      1  0.5441500000000  0.5988200000000  0.5065790000000 1.0
C      1  0.3902380000000  0.5237970000000  0.5456850000000 1.0
C      1  0.6205980000000  0.4878210000000  0.5613870000000 1.0
C      1  0.5923430000000  0.5171330000000  0.4520130000000 1.0
C      1  0.5087330000000  0.5388390000000  0.5909560000000 1.0
C      1  0.4948390000000  0.4297290000000  0.6011850000000 1.0
C      1  0.4971130000000  0.5406600000000  0.4021070000000 1.0
C      1  0.5604850000000  0.3934770000000  0.4812850000000 1.0
C      1  0.5873520000000  0.5058240000000  0.4586400000000 1.0
C      1  0.5124410000000  0.4449430000000  0.3903210000000 1.0
C      1  0.5513520000000  0.6031110000000  0.5174430000000 1.0
C      1  0.4513490000000  0.3995700000000  0.4939000000000 1.0
C      1  0.4375200000000  0.5978710000000  0.4842380000000 1.0
C      1  0.6169250000000  0.4987440000000  0.5539710000000 1.0
C      1  0.3977850000000  0.5145310000000  0.5381540000000 1.0
C      1  0.3969880000000  0.4974190000000  0.4378130000000 1.0
C      1  0.5194090000000  0.5459960000000  0.5964900000000 1.0
C      1  0.4851240000000  0.4397240000000  0.6021350000000 1.0
C      1  0.4839910000000  0.5458810000000  0.4000090000000 1.0
C      1  0.4175700000000  0.5708040000000  0.5728070000000 1.0
C      1  0.5529800000000  0.5621580000000  0.4199980000000 1.0
C      1  0.5756910000000  0.4286270000000  0.5568930000000 1.0
C      1  0.4229400000000  0.4236690000000  0.4301550000000 1.0
C      1  0.5634070000000  0.5669660000000  0.4283340000000 1.0
C      1  0.5831660000000  0.4311490000000  0.5686420000000 1.0
C      1  0.5684780000000  0.4295590000000  0.5693850000000 1.0
C      1  0.4323970000000  0.5714510000000  0.5747910000000 1.0
C      1  0.4371640000000  0.4233960000000  0.4268300000000 1.0
C      1  0.5605660000000  0.5707870000000  0.4415560000000 1.0
C      1  0.4324630000000  0.4185500000000  0.4393250000000 1.0
C      1  0.4254200000000  0.5787970000000  0.5645630000000 1.0
C      1  0.5708280000000  0.5606230000000  0.5715290000000 1.0
C      1  0.4495530000000  0.5610070000000  0.4213760000000 1.0
C      1  0.4393290000000  0.4267930000000  0.5746480000000 1.0
C      1  0.5695460000000  0.4363550000000  0.4161600000000 1.0
C      1  0.4385430000000  0.5525600000000  0.4238300000000 1.0
C      1  0.4304060000000  0.4478600000000  0.5758970000000 1.0
C      1  0.4403890000000  0.4396130000000  0.5810810000000 1.0
C      1  0.5638640000000  0.5710960000000  0.5789060000000 1.0
C      1  0.5607470000000  0.4252850000000  0.4171670000000 1.0
C      1  0.4537490000000  0.5672680000000  0.4335110000000 1.0
C      1  0.5578710000000  0.4206270000000  0.4303330000000 1.0
C      1  0.5753970000000  0.5748320000000  0.5717930000000 1.0
C      1  0.4847850000000  0.5907570000000  0.5212790000000 1.0
C      1  0.5893540000000  0.5152140000000  0.5065500000000 1.0
C      1  0.5086790000000  0.4783870000000  0.5829890000000 1.0
C      1  0.4974400000000  0.4062880000000  0.4775720000000 1.0
C      1  0.5001880000000  0.5860990000000  0.4897510000000 1.0
C      1  0.5083980000000  0.4098290000000  0.5128540000000 1.0
C      1  0.5988910000000  0.4828620000000  0.5133790000000 1.0
C      1  0.4059430000000  0.5241460000000  0.4913680000000 1.0
C      1  0.4069740000000  0.4879610000000  0.4852850000000 1.0
C      1  0.5241440000000  0.5047180000000  0.4194530000000 1.0
C      1  0.5030500000000  0.4892700000000  0.4316610000000 1.0
C      1  0.4846860000000  0.4975110000000  0.5894170000000 1.0
C      1  0.4967200000000  0.5900050000000  0.5174540000000 1.0
C      1  0.4092680000000  0.5228320000000  0.4787090000000 1.0
C      1  0.4783510000000  0.4863820000000  0.5920150000000 1.0
C      1  0.5097890000000  0.4015160000000  0.4784890000000 1.0
C      1  0.4881170000000  0.5890050000000  0.4909030000000 1.0
C      1  0.4960300000000  0.4097120000000  0.5083280000000 1.0
C      1  0.4103600000000  0.4939110000000  0.4967730000000 1.0
C      1  0.5928250000000  0.5164870000000  0.5192210000000 1.0
C      1  0.5890470000000  0.4840210000000  0.5030060000000 1.0
C      1  0.4980840000000  0.5009450000000  0.4326210000000 1.0
C      1  0.5289420000000  0.4931380000000  0.4174910000000 1.0
C      1  0.5127380000000  0.4903170000000  0.5836830000000 1.0
C      1  0.4269200000000  0.4323740000000  0.5381030000000 1.0
C      1  0.4303180000000  0.5148980000000  0.4537690000000 1.0
C      1  0.5249670000000  0.4117150000000  0.4244480000000 1.0
C      1  0.4508200000000  0.5669690000000  0.4804160000000 1.0
C      1  0.5538380000000  0.4318800000000  0.4736500000000 1.0
C      1  0.5842460000000  0.5710860000000  0.5388150000000 1.0
C      1  0.4259190000000  0.4784280000000  0.5756550000000 1.0
C      1  0.5696400000000  0.5139610000000  0.5618280000000 1.0
C      1  0.5779800000000  0.4743430000000  0.4088700000000 1.0
C      1  0.5210280000000  0.5982430000000  0.5802000000000 1.0
C      1  0.4804460000000  0.4524310000000  0.5749810000000 1.0
C      1  0.4765940000000  0.5841100000000  0.4241710000000 1.0
C      1  0.5777290000000  0.4499410000000  0.5115610000000 1.0
C      1  0.5689370000000  0.5335700000000  0.4092670000000 1.0
C      1  0.4672480000000  0.4216670000000  0.4316210000000 1.0
C      1  0.5553190000000  0.5648770000000  0.4907530000000 1.0
C      1  0.4285640000000  0.4374770000000  0.4832300000000 1.0
C      1  0.4314800000000  0.5732900000000  0.5171080000000 1.0
C      1  0.5801060000000  0.4614450000000  0.5856700000000 1.0
C      1  0.4222800000000  0.5358250000000  0.5831990000000 1.0
C      1  0.4167710000000  0.4682370000000  0.4379260000000 1.0
C      1  0.4654670000000  0.5783620000000  0.5800940000000 1.0
C      1  0.5232610000000  0.4412040000000  0.5735970000000 1.0
C      1  0.5174190000000  0.5510090000000  0.4239780000000 1.0
C      1  0.5601250000000  0.4101280000000  0.4975230000000 1.0
C      1  0.3905290000000  0.5238090000000  0.5584320000000 1.0
C      1  0.5087170000000  0.5492300000000  0.4007490000000 1.0
C      1  0.5517400000000  0.5974170000000  0.4945240000000 1.0
C      1  0.4296720000000  0.3949470000000  0.4850530000000 1.0
C      1  0.4311550000000  0.6016600000000  0.5064940000000 1.0
C      1  0.3939830000000  0.4787180000000  0.4225280000000 1.0
C      1  0.5944400000000  0.5208330000000  0.4402330000000 1.0
C      1  0.6171110000000  0.4820550000000  0.5722240000000 1.0
C      1  0.5062130000000  0.4249850000000  0.6001970000000 1.0
C      1  0.4966940000000  0.5457400000000  0.5893000000000 1.0
C      1  0.4943170000000  0.4472380000000  0.4063080000000 1.0
C      1  0.4461560000000  0.4046220000000  0.5060610000000 1.0
C      1  0.6076450000000  0.5072430000000  0.5606470000000 1.0
C      1  0.4817390000000  0.5591220000000  0.4013340000000 1.0
C      1  0.4328900000000  0.5925400000000  0.4737710000000 1.0
C      1  0.5676480000000  0.3995590000000  0.4725530000000 1.0
C      1  0.5634630000000  0.6032620000000  0.5209210000000 1.0
C      1  0.5841550000000  0.4955140000000  0.4497610000000 1.0
C      1  0.4023630000000  0.5059890000000  0.4279210000000 1.0
C      1  0.4033710000000  0.5037750000000  0.5448780000000 1.0
C      1  0.4724650000000  0.4377940000000  0.5977110000000 1.0
C      1  0.5195690000000  0.5585120000000  0.5987210000000 1.0
C      1  0.5111320000000  0.4322660000000  0.3906530000000 1.0
C      1  0.5103640000000  0.5194550000000  0.4050580000000 1.0
C      1  0.5321560000000  0.4000180000000  0.5080780000000 1.0
C      1  0.3948330000000  0.5215630000000  0.5139260000000 1.0
C      1  0.5026410000000  0.4588990000000  0.5983490000000 1.0
C      1  0.4942820000000  0.5195260000000  0.5923370000000 1.0
C      1  0.5004720000000  0.4724130000000  0.4142580000000 1.0
C      1  0.5239310000000  0.5921740000000  0.4941120000000 1.0
C      1  0.4738280000000  0.3984050000000  0.4806600000000 1.0
C      1  0.4609530000000  0.6002310000000  0.5137990000000 1.0
C      1  0.3954410000000  0.4917120000000  0.4626980000000 1.0
C      1  0.5920390000000  0.5138300000000  0.4817040000000 1.0
C      1  0.6163590000000  0.4890810000000  0.5301340000000 1.0
C      1  0.4914980000000  0.5202950000000  0.4166920000000 1.0
C      1  0.4729250000000  0.4030660000000  0.5036050000000 1.0
C      1  0.6129020000000  0.5115170000000  0.5332570000000 1.0
C      1  0.4821900000000  0.4651130000000  0.6052070000000 1.0
C      1  0.5164500000000  0.5143690000000  0.5922800000000 1.0
C      1  0.5212890000000  0.4723420000000  0.4048580000000 1.0
C      1  0.4657200000000  0.6000780000000  0.4913110000000 1.0
C      1  0.5294910000000  0.3931960000000  0.4873310000000 1.0
C      1  0.5207440000000  0.5976540000000  0.5159360000000 1.0
C      1  0.5919120000000  0.4914670000000  0.4793140000000 1.0
C      1  0.4023590000000  0.5125510000000  0.4581830000000 1.0
C      1  0.4029680000000  0.5013560000000  0.5184530000000 1.0
C      1  0.4097160000000  0.4455870000000  0.4277330000000 1.0
C      1  0.4543600000000  0.4420410000000  0.4221400000000 1.0
C      1  0.4351530000000  0.4207490000000  0.4644540000000 1.0
C      1  0.4023720000000  0.5505300000000  0.5756170000000 1.0
C      1  0.5998340000000  0.4462580000000  0.5804040000000 1.0
C      1  0.5824800000000  0.5511350000000  0.4226650000000 1.0
C      1  0.4520510000000  0.5574990000000  0.5863510000000 1.0
C      1  0.5484640000000  0.4408020000000  0.5811450000000 1.0
C      1  0.5355110000000  0.5467100000000  0.4073250000000 1.0
C      1  0.4261260000000  0.5847670000000  0.5395000000000 1.0
C      1  0.5737150000000  0.4344390000000  0.5316380000000 1.0
C      1  0.5501220000000  0.5708810000000  0.4652570000000 1.0
C      1  0.5816620000000  0.4567100000000  0.4274580000000 1.0
C      1  0.5394900000000  0.4192870000000  0.4043240000000 1.0
C      1  0.5462640000000  0.4152040000000  0.4535250000000 1.0
C      1  0.5778400000000  0.5391120000000  0.5580390000000 1.0
C      1  0.4167060000000  0.4619880000000  0.5588060000000 1.0
C      1  0.4268270000000  0.5396310000000  0.4431300000000 1.0
C      1  0.5415940000000  0.5827860000000  0.5851010000000 1.0
C      1  0.4572230000000  0.4584570000000  0.5849860000000 1.0
C      1  0.4698830000000  0.5659540000000  0.4067310000000 1.0
C      1  0.5848530000000  0.5910660000000  0.5549260000000 1.0
C      1  0.4457430000000  0.4193940000000  0.5507880000000 1.0
C      1  0.4619410000000  0.5740390000000  0.4577430000000 1.0
C      1  0.4010480000000  0.4743470000000  0.4838980000000 1.0
C      1  0.4683330000000  0.4756310000000  0.4173010000000 1.0
C      1  0.4895830000000  0.3837600000000  0.4618890000000 1.0
C      1  0.3849610000000  0.5461260000000  0.5078100000000 1.0
C      1  0.6069950000000  0.4706670000000  0.5111360000000 1.0
C      1  0.6053550000000  0.5442860000000  0.4846890000000 1.0
C      1  0.4652570000000  0.5267210000000  0.5990830000000 1.0
C      1  0.5349620000000  0.4678670000000  0.5942570000000 1.0
C      1  0.5317730000000  0.5143290000000  0.3886150000000 1.0
C      1  0.4654230000000  0.6107700000000  0.5468330000000 1.0
C      1  0.5127110000000  0.4100000000000  0.5270120000000 1.0
C      1  0.5236690000000  0.5913860000000  0.4647220000000 1.0
C      1  0.5974920000000  0.4677790000000  0.4582490000000 1.0
C      1  0.5457170000000  0.4802430000000  0.3808020000000 1.0
C      1  0.5183970000000  0.3961330000000  0.4681140000000 1.0
C      1  0.5956090000000  0.5295630000000  0.5253060000000 1.0
C      1  0.3994540000000  0.4699550000000  0.5291190000000 1.0
C      1  0.4088420000000  0.5326220000000  0.4680210000000 1.0
C      1  0.5468270000000  0.5126050000000  0.6075560000000 1.0
C      1  0.4658380000000  0.4855360000000  0.6001620000000 1.0
C      1  0.4625460000000  0.5104960000000  0.4282400000000 1.0
C      1  0.5095650000000  0.6148430000000  0.5414480000000 1.0
C      1  0.4739170000000  0.4059650000000  0.5351700000000 1.0
C      1  0.4822070000000  0.5999920000000  0.4652480000000 1.0
C      1  0.4128730000000  0.5548370000000  0.5196480000000 1.0
C      1  0.5559530000000  0.5319750000000  0.4048140000000 1.0
C      1  0.5250420000000  0.4245590000000  0.5485540000000 1.0
C      1  0.4259430000000  0.4508630000000  0.4849130000000 1.0
C      1  0.5842350000000  0.5636960000000  0.4783880000000 1.0
C      1  0.5838010000000  0.4708190000000  0.4998150000000 1.0
C      1  0.5664100000000  0.4597580000000  0.5849550000000 1.0
C      1  0.4355380000000  0.5377490000000  0.5866350000000 1.0
C      1  0.4386550000000  0.4619100000000  0.4217430000000 1.0
C      1  0.5318110000000  0.5637660000000  0.4485510000000 1.0
C      1  0.4719710000000  0.4114030000000  0.4566730000000 1.0
C      1  0.4615090000000  0.5894230000000  0.5728150000000 1.0
C      1  0.5819190000000  0.5574260000000  0.5400110000000 1.0
C      1  0.4437510000000  0.5107370000000  0.4552490000000 1.0
C      1  0.4678360000000  0.4224180000000  0.5642790000000 1.0
C      1  0.5780970000000  0.4427150000000  0.4486810000000 1.0
C      1  0.4295520000000  0.5595770000000  0.4611350000000 1.0
C      1  0.4188590000000  0.4436820000000  0.5405650000000 1.0
C      1  0.4371140000000  0.4763990000000  0.5834140000000 1.0
C      1  0.5686710000000  0.5206230000000  0.5901150000000 1.0
C      1  0.5734360000000  0.4740290000000  0.3958950000000 1.0
C      1  0.4883850000000  0.5724120000000  0.4554170000000 1.0
C      1  0.5270180000000  0.4094880000000  0.4378820000000 1.0
C      1  0.5175790000000  0.6085240000000  0.5718060000000 1.0
C      1  0.5338750000000  0.4794370000000  0.3841930000000 1.0
C      1  0.4723140000000  0.3974540000000  0.5262570000000 1.0
C      1  0.3986130000000  0.5265760000000  0.4591950000000 1.0
C      1  0.5344110000000  0.5131770000000  0.6083950000000 1.0
C      1  0.4700520000000  0.4824970000000  0.6127850000000 1.0
C      1  0.4687890000000  0.5115310000000  0.4177310000000 1.0
C      1  0.4795270000000  0.6069090000000  0.4751620000000 1.0
C      1  0.5270090000000  0.3868060000000  0.4746870000000 1.0
C      1  0.5134720000000  0.6148450000000  0.5297500000000 1.0
C      1  0.3938950000000  0.4802400000000  0.5250640000000 1.0
C      1  0.6092570000000  0.5310920000000  0.5222990000000 1.0
C      1  0.6032520000000  0.4761330000000  0.4653320000000 1.0
C      1  0.4781540000000  0.4796950000000  0.4106300000000 1.0
C      1  0.5229820000000  0.4008500000000  0.5285920000000 1.0
C      1  0.6073810000000  0.5322480000000  0.4821950000000 1.0
C      1  0.4762170000000  0.5255600000000  0.6047960000000 1.0
C      1  0.5247250000000  0.4658660000000  0.6007430000000 1.0
C      1  0.5201260000000  0.5096730000000  0.3871050000000 1.0
C      1  0.5232820000000  0.6005180000000  0.4731810000000 1.0
C      1  0.4847620000000  0.3769740000000  0.4719220000000 1.0
C      1  0.4652960000000  0.6129890000000  0.5347060000000 1.0
C      1  0.6202840000000  0.4730450000000  0.5133450000000 1.0
C      1  0.3772120000000  0.5359500000000  0.5085560000000 1.0
C      1  0.3884100000000  0.4759740000000  0.4785650000000 1.0
C      1  0.4246130000000  0.5813490000000  0.5262810000000 1.0
C      1  0.5799890000000  0.5392490000000  0.4164590000000 1.0
C      1  0.5340770000000  0.4372730000000  0.5822370000000 1.0
C      1  0.4316850000000  0.4250640000000  0.4768120000000 1.0
C      1  0.5559460000000  0.5713260000000  0.4781940000000 1.0
C      1  0.5734390000000  0.4382760000000  0.5185920000000 1.0
C      1  0.5940860000000  0.4580390000000  0.5845520000000 1.0
C      1  0.4089980000000  0.5390110000000  0.5787830000000 1.0
C      1  0.4117040000000  0.4590670000000  0.4287000000000 1.0
C      1  0.5212970000000  0.5500350000000  0.4094050000000 1.0
C      1  0.4659260000000  0.4339440000000  0.4248960000000 1.0
C      1  0.4642390000000  0.5651150000000  0.5852670000000 1.0
C      1  0.5847300000000  0.5851040000000  0.5426070000000 1.0
C      1  0.4258890000000  0.5255340000000  0.4443070000000 1.0
C      1  0.4701690000000  0.4582490000000  0.5799100000000 1.0
C      1  0.5531340000000  0.4210860000000  0.4648240000000 1.0
C      1  0.4519690000000  0.5707130000000  0.4671230000000 1.0
C      1  0.4374870000000  0.4223840000000  0.5394220000000 1.0
C      1  0.4176130000000  0.4750530000000  0.5645480000000 1.0
C      1  0.5777610000000  0.5253360000000  0.5631010000000 1.0
C      1  0.5814630000000  0.4696640000000  0.4218780000000 1.0
C      1  0.4749990000000  0.5782010000000  0.4118500000000 1.0
C      1  0.5280190000000  0.4156350000000  0.4110200000000 1.0
C      1  0.5291530000000  0.5881000000000  0.5860280000000 1.0
C      1  0.5874550000000  0.5601510000000  0.4917470000000 1.0
C      1  0.5606500000000  0.4729770000000  0.5871090000000 1.0
C      1  0.4733810000000  0.5959820000000  0.5673020000000 1.0
C      1  0.5912720000000  0.4607090000000  0.4921720000000 1.0
C      1  0.4088810000000  0.5564420000000  0.5046130000000 1.0
C      1  0.4146230000000  0.4522230000000  0.4947470000000 1.0
C      1  0.5545100000000  0.5182640000000  0.4004500000000 1.0
C      1  0.4429140000000  0.4746860000000  0.4250590000000 1.0
C      1  0.4409700000000  0.5244070000000  0.5889790000000 1.0
C      1  0.4827290000000  0.4062210000000  0.4483230000000 1.0
C      1  0.5206540000000  0.5724220000000  0.4463460000000 1.0
C      1  0.5111500000000  0.4242370000000  0.5481660000000 1.0
C      1  0.4231590000000  0.5549000000000  0.4736630000000 1.0
C      1  0.4411580000000  0.4897250000000  0.5883720000000 1.0
C      1  0.5047320000000  0.6056340000000  0.5655720000000 1.0
C      1  0.4126360000000  0.4471250000000  0.5279690000000 1.0
C      1  0.5836960000000  0.5527690000000  0.5263050000000 1.0
C      1  0.5826770000000  0.4476040000000  0.4612030000000 1.0
C      1  0.4469310000000  0.5001580000000  0.4453470000000 1.0
C      1  0.5666910000000  0.4866870000000  0.3936020000000 1.0
C      1  0.5653510000000  0.5071200000000  0.5919160000000 1.0
C      1  0.5140720000000  0.4057700000000  0.4434390000000 1.0
C      1  0.4937230000000  0.5841570000000  0.4483190000000 1.0
C      1  0.4800790000000  0.4210520000000  0.5562950000000 1.0
C      1  0.4117910000000  0.4702230000000  0.4192750000000 1.0
C      1  0.4801360000000  0.4326840000000  0.4220150000000 1.0
C      1  0.4245590000000  0.4179980000000  0.4881760000000 1.0
C      1  0.4064890000000  0.5244260000000  0.5761860000000 1.0
C      1  0.5974160000000  0.4725590000000  0.5848630000000 1.0
C      1  0.5857400000000  0.5254760000000  0.4179070000000 1.0
C      1  0.4790990000000  0.5641390000000  0.5852470000000 1.0
C      1  0.5293160000000  0.4287240000000  0.5920840000000 1.0
C      1  0.5172140000000  0.5655960000000  0.4106580000000 1.0
C      1  0.4176700000000  0.5860520000000  0.5147490000000 1.0
C      1  0.5717970000000  0.4315750000000  0.5053010000000 1.0
C      1  0.5667090000000  0.5798330000000  0.4842200000000 1.0
C      1  0.5799540000000  0.4835570000000  0.4272100000000 1.0
C      1  0.5132720000000  0.4166780000000  0.4082480000000 1.0
C      1  0.5679580000000  0.4210200000000  0.4660220000000 1.0
C      1  0.5862820000000  0.5167140000000  0.5718160000000 1.0
C      1  0.4149620000000  0.4895710000000  0.5627350000000 1.0
C      1  0.4213620000000  0.5159060000000  0.4349730000000 1.0
C      1  0.5160810000000  0.5810700000000  0.5899130000000 1.0
C      1  0.4706030000000  0.4308530000000  0.5750970000000 1.0
C      1  0.4895030000000  0.5789710000000  0.4105910000000 1.0
C      1  0.5818480000000  0.5890460000000  0.5286320000000 1.0
C      1  0.4361110000000  0.4191950000000  0.5249920000000 1.0
C      1  0.4371200000000  0.5714920000000  0.4614430000000 1.0
C      1  0.5039680000000  0.4310550000000  0.5589740000000 1.0
C      1  0.4180020000000  0.5641510000000  0.4976430000000 1.0
C      1  0.5659840000000  0.5104010000000  0.4043140000000 1.0
C      1  0.5117820000000  0.5737700000000  0.4356980000000 1.0
C      1  0.4894840000000  0.4113450000000  0.4370030000000 1.0
C      1  0.4849410000000  0.5896170000000  0.5725270000000 1.0
C      1  0.4154600000000  0.4403490000000  0.5029070000000 1.0
C      1  0.5793220000000  0.5636390000000  0.5022310000000 1.0
C      1  0.5828700000000  0.4492850000000  0.4872730000000 1.0
C      1  0.5707000000000  0.4832170000000  0.5854480000000 1.0
C      1  0.4316540000000  0.5142330000000  0.5849700000000 1.0
C      1  0.4338190000000  0.4842230000000  0.4300290000000 1.0
C      1  0.4897430000000  0.4305940000000  0.5612710000000 1.0
C      1  0.5819570000000  0.5632770000000  0.5165350000000 1.0
C      1  0.4354430000000  0.4950540000000  0.4393420000000 1.0
C      1  0.5000890000000  0.5820640000000  0.4354120000000 1.0
C      1  0.5036130000000  0.4090810000000  0.4342090000000 1.0
C      1  0.4985560000000  0.5947510000000  0.5725030000000 1.0
C      1  0.5790160000000  0.4439590000000  0.4742490000000 1.0
C      1  0.4264510000000  0.5611320000000  0.4863470000000 1.0
C      1  0.4167390000000  0.4386860000000  0.5173380000000 1.0
C      1  0.4324140000000  0.4997520000000  0.5832230000000 1.0
C      1  0.5698180000000  0.4976530000000  0.5832350000000 1.0
C      1  0.5689100000000  0.4960100000000  0.4038850000000 1.0
C      1  0.5209600000000  0.4027460000000  0.4560190000000 1.0
C      1  0.4067860000000  0.4592850000000  0.5336460000000 1.0
C      1  0.4575300000000  0.5083670000000  0.4407000000000 1.0
C      1  0.5088270000000  0.6150110000000  0.5551800000000 1.0
C      1  0.4723810000000  0.4138900000000  0.5461180000000 1.0
C      1  0.4829000000000  0.5913540000000  0.4545550000000 1.0
C      1  0.4172120000000  0.5434960000000  0.4663890000000 1.0
C      1  0.5895660000000  0.4580670000000  0.4533000000000 1.0
C      1  0.5865820000000  0.5394140000000  0.5311330000000 1.0
C      1  0.4533790000000  0.4838450000000  0.5936280000000 1.0
C      1  0.5600730000000  0.5123500000000  0.6044950000000 1.0
C      1  0.5593390000000  0.4804610000000  0.3828770000000 1.0
C      1  0.4838240000000  0.3956300000000  0.4580370000000 1.0
C      1  0.5989140000000  0.4598760000000  0.5056170000000 1.0
C      1  0.5409430000000  0.5214370000000  0.3957900000000 1.0
C      1  0.4650650000000  0.6046970000000  0.5592580000000 1.0
C      1  0.5066050000000  0.4172980000000  0.5373920000000 1.0
C      1  0.5252750000000  0.5797460000000  0.4581420000000 1.0
C      1  0.6002940000000  0.5568100000000  0.4858090000000 1.0
C      1  0.4099470000000  0.4636750000000  0.4873690000000 1.0
C      1  0.3958840000000  0.5539320000000  0.5093410000000 1.0
C      1  0.5474430000000  0.4665880000000  0.5886430000000 1.0
C      1  0.4536290000000  0.5306010000000  0.5931550000000 1.0
C      1  0.4567640000000  0.4695730000000  0.4214820000000 1.0
C      1  0.5272180000000  0.3908960000000  0.5185510000000 1.0
C      1  0.3800700000000  0.5230050000000  0.5127110000000 1.0
C      1  0.5084340000000  0.5102150000000  0.3940450000000 1.0
C      1  0.5226890000000  0.6052760000000  0.4859130000000 1.0
C      1  0.4774120000000  0.3825430000000  0.4821310000000 1.0
C      1  0.4654530000000  0.6124990000000  0.5207650000000 1.0
C      1  0.3839880000000  0.4869680000000  0.4707960000000 1.0
C      1  0.6054900000000  0.5189910000000  0.4787280000000 1.0
C      1  0.6249600000000  0.4858120000000  0.5186860000000 1.0
C      1  0.5128180000000  0.4646830000000  0.6075460000000 1.0
C      1  0.4894330000000  0.5222960000000  0.6063200000000 1.0
C      1  0.4910390000000  0.4796700000000  0.4060600000000 1.0
C      1  0.4720260000000  0.3924190000000  0.5135340000000 1.0
C      1  0.6187660000000  0.5206240000000  0.5231420000000 1.0
C      1  0.4800880000000  0.5136960000000  0.4100280000000 1.0
C      1  0.4731590000000  0.6118050000000  0.4864410000000 1.0
C      1  0.5236340000000  0.3786030000000  0.4858480000000 1.0
C      1  0.5186700000000  0.6122450000000  0.5171480000000 1.0
C      1  0.6053470000000  0.4866370000000  0.4737770000000 1.0
C      1  0.3855960000000  0.5224730000000  0.4645940000000 1.0
C      1  0.3910380000000  0.4929120000000  0.5201840000000 1.0
C      1  0.4809250000000  0.4745420000000  0.6167730000000 1.0
C      1  0.5208710000000  0.5147890000000  0.6064340000000 1.0
C      1  0.5218850000000  0.4774740000000  0.3909180000000 1.0
C      1  0.4757370000000  0.3790930000000  0.4951960000000 1.0
C      1  0.3859600000000  0.4995550000000  0.4791180000000 1.0
C      1  0.4978200000000  0.4872510000000  0.3949760000000 1.0
C      1  0.4775510000000  0.6125590000000  0.5123290000000 1.0
C      1  0.5161060000000  0.3868440000000  0.5096150000000 1.0
C      1  0.5198980000000  0.6176090000000  0.4922820000000 1.0
C      1  0.3728360000000  0.5105940000000  0.5142390000000 1.0
C      1  0.6186250000000  0.4966970000000  0.5113840000000 1.0
C      1  0.6141480000000  0.5086700000000  0.4750380000000 1.0
C      1  0.4982740000000  0.5200370000000  0.6172270000000 1.0
C      1  0.5058440000000  0.4772600000000  0.6077200000000 1.0
C      1  0.4963280000000  0.5017610000000  0.3941510000000 1.0
C      1  0.5140880000000  0.3830100000000  0.4957620000000 1.0
C      1  0.6160770000000  0.4962400000000  0.4736940000000 1.0
C      1  0.5091110000000  0.4821500000000  0.3897640000000 1.0
C      1  0.5189260000000  0.6196310000000  0.5048230000000 1.0
C      1  0.4746770000000  0.3794130000000  0.5078350000000 1.0
C      1  0.4813420000000  0.6114550000000  0.4987720000000 1.0
C      1  0.6161220000000  0.5106210000000  0.5129540000000 1.0
C      1  0.3795430000000  0.5001640000000  0.5172210000000 1.0
C      1  0.3870340000000  0.5131950000000  0.4742190000000 1.0
C      1  0.5103870000000  0.5165470000000  0.6156120000000 1.0
C      1  0.4928490000000  0.4816310000000  0.6113740000000 1.0
C      1  0.4850400000000  0.5070490000000  0.3993040000000 1.0
C      1  0.4028600000000  0.5177010000000  0.5024810000000 1.0
C      1  0.5136100000000  0.5129950000000  0.4177610000000 1.0
C      1  0.5175900000000  0.4021470000000  0.5048450000000 1.0
C      1  0.4010100000000  0.4969750000000  0.4758880000000 1.0
C      1  0.5896000000000  0.5085850000000  0.4951150000000 1.0
C      1  0.6061520000000  0.4931990000000  0.5198240000000 1.0
C      1  0.5009040000000  0.4725170000000  0.5930490000000 1.0
C      1  0.4949610000000  0.5056840000000  0.5886580000000 1.0
C      1  0.5086710000000  0.4806350000000  0.4227700000000 1.0
C      1  0.5113900000000  0.5866640000000  0.4977350000000 1.0
C      1  0.4868720000000  0.4051960000000  0.4856260000000 1.0
C      1  0.4751210000000  0.5966350000000  0.5122480000000 1.0
C      1  0.6038810000000  0.5073940000000  0.5222620000000 1.0
C      1  0.5006120000000  0.5122520000000  0.4245720000000 1.0
C      1  0.4862440000000  0.4070670000000  0.4996820000000 1.0
C      1  0.5895790000000  0.4942570000000  0.4934600000000 1.0
C      1  0.4026220000000  0.5108850000000  0.4727380000000 1.0
C      1  0.4069110000000  0.5037800000000  0.5049550000000 1.0
C      1  0.4877190000000  0.4766840000000  0.5973610000000 1.0
C      1  0.5092490000000  0.5028110000000  0.5873240000000 1.0
C      1  0.5217300000000  0.4812970000000  0.4161850000000 1.0
C      1  0.4782710000000  0.5961420000000  0.4977950000000 1.0
C      1  0.5159080000000  0.3975700000000  0.4911740000000 1.0
C      1  0.5090130000000  0.5898620000000  0.5120710000000 1.0
C      1  0.5581350000000  0.5720310000000  0.4535090000000 1.0
C      1  0.5932010000000  0.4370300000000  0.5746710000000 1.0
C      1  0.4413110000000  0.5650300000000  0.5813470000000 1.0
C      1  0.5752090000000  0.4313870000000  0.5436900000000 1.0
C      1  0.4264260000000  0.5831650000000  0.5518660000000 1.0
C      1  0.4358920000000  0.4181500000000  0.4522560000000 1.0
C      1  0.5755580000000  0.5610940000000  0.4258150000000 1.0
C      1  0.4150650000000  0.4342970000000  0.4286380000000 1.0
C      1  0.4082450000000  0.5618330000000  0.5744430000000 1.0
C      1  0.4432530000000  0.4336900000000  0.4216110000000 1.0
C      1  0.5443900000000  0.5558800000000  0.4139040000000 1.0
C      1  0.5576770000000  0.4321120000000  0.5762140000000 1.0
C      1  0.4582100000000  0.5711150000000  0.4442540000000 1.0
C      1  0.4231330000000  0.4527450000000  0.5674000000000 1.0
C      1  0.5521800000000  0.5765540000000  0.5826790000000 1.0
C      1  0.4399840000000  0.4231230000000  0.5629720000000 1.0
C      1  0.5810310000000  0.5844930000000  0.5651290000000 1.0
C      1  0.5536550000000  0.4179660000000  0.4415300000000 1.0
C      1  0.4317450000000  0.5452500000000  0.4309920000000 1.0
C      1  0.5758040000000  0.4462620000000  0.4196220000000 1.0
C      1  0.5734410000000  0.5487870000000  0.5668740000000 1.0
C      1  0.5512010000000  0.4220690000000  0.4077820000000 1.0
C      1  0.4579480000000  0.5611050000000  0.4106110000000 1.0
C      1  0.4524940000000  0.4443320000000  0.5858420000000 1.0
C      1  0.5755600000000  0.6000060000000  0.5238110000000 1.0
C      1  0.5983290000000  0.5124790000000  0.5668460000000 1.0
C      1  0.5152580000000  0.5704870000000  0.5981070000000 1.0
C      1  0.5730050000000  0.4081870000000  0.4641800000000 1.0
C      1  0.4315950000000  0.5832750000000  0.4647770000000 1.0
C      1  0.4419280000000  0.4108780000000  0.5156220000000 1.0
C      1  0.5817210000000  0.4895070000000  0.4393260000000 1.0
C      1  0.4110630000000  0.5148900000000  0.4252530000000 1.0
C      1  0.4087820000000  0.4963150000000  0.5527550000000 1.0
C      1  0.5074930000000  0.4214700000000  0.3968040000000 1.0
C      1  0.4931210000000  0.5682180000000  0.4024920000000 1.0
C      1  0.4638550000000  0.4348450000000  0.5878040000000 1.0
C      1  0.4194620000000  0.5996770000000  0.5110340000000 1.0
C      1  0.3952020000000  0.5201710000000  0.5698540000000 1.0
C      1  0.4879570000000  0.5541160000000  0.5879350000000 1.0
C      1  0.4225290000000  0.4047720000000  0.4896220000000 1.0
C      1  0.5603940000000  0.5910320000000  0.4887850000000 1.0
C      1  0.5670170000000  0.4199540000000  0.5003980000000 1.0
C      1  0.4000770000000  0.4732790000000  0.4120570000000 1.0
C      1  0.5942530000000  0.5211700000000  0.4274230000000 1.0
C      1  0.6087560000000  0.4787500000000  0.5812510000000 1.0
C      1  0.4879820000000  0.4401030000000  0.4139000000000 1.0
C      1  0.5061420000000  0.5631340000000  0.4021410000000 1.0
C      1  0.5190770000000  0.4237340000000  0.5971570000000 1.0
C      1  0.4995850000000  0.5283340000000  0.4081800000000 1.0
C      1  0.5396070000000  0.3968980000000  0.4965130000000 1.0
C      1  0.4002800000000  0.5140550000000  0.5246180000000 1.0
C      1  0.4901400000000  0.4537320000000  0.6028660000000 1.0
C      1  0.5073110000000  0.5251490000000  0.5894910000000 1.0
C      1  0.5098250000000  0.4640570000000  0.4069950000000 1.0
C      1  0.5310950000000  0.5942700000000  0.5064280000000 1.0
C      1  0.4649600000000  0.4016300000000  0.4919910000000 1.0
C      1  0.4552520000000  0.5999300000000  0.5007860000000 1.0
C      1  0.3979420000000  0.5004580000000  0.4520620000000 1.0
C      1  0.5879340000000  0.5038850000000  0.4724530000000 1.0
C      1  0.6177380000000  0.4997590000000  0.5396950000000 1.0
END
