TITL C-69164-3690-2 -0.132919970088077 1000000 -3644.75066608576 0 0 520 (C1) n - 1
REM
REM in /rds/project/t2_vol4/rds-t2-cs072/BORA/CARBON/from-Arr/AIRSS/Generating-Clusters/GAP-ML-2020/Higher-Symm/Selected-Sizes/Larger-Clusters/Only-C240
REM
REM
REM
REM
REM
REM ./C.cell (db1db5b03a21c153a00b653f6831bbfd)
REM AIRSS Version 0.9.1 bugfix July 2018 build 013d7b7c2542+ Fri, 06 Jul 2018 19:26:36 +0100
REM compiler GCC version 9.3.0
REM options -cpp -mtune=generic -march=x86-64 -g -O0
REM seed 1701463266 -143933055 1339587592 993914261 1792296826 -955225981 -1099011126 832585770 -574731569 -1617360997 2114351907 -1532261163 1733666802 1465039865 577969390 42866534 564335450 -1860059184 1539646218 2091668615 -1788137235 1991893201 1799629408 1964068976 -252950886 231841078 -1621342826 402972335 -1865675816 869320389 643878599 629459917 1907578572
REM
CELL 1.54180  100.00000  100.00000  100.00000   90.00000   90.00000   90.00000
LATT -1
SFAC C  
C      1  0.4735350000000  0.5161660000000  0.4518510000000 1.0
C      1  0.5169150000000  0.4794980000000  0.4532000000000 1.0
C      1  0.4761880000000  0.4592600000000  0.4740760000000 1.0
C      1  0.5258540000000  0.4525720000000  0.5003630000000 1.0
C      1  0.4779210000000  0.4651940000000  0.5319780000000 1.0
C      1  0.5272370000000  0.4864370000000  0.5502820000000 1.0
C      1  0.4792220000000  0.5166280000000  0.5394130000000 1.0
C      1  0.5262310000000  0.5415670000000  0.5298670000000 1.0
C      1  0.4827060000000  0.5511940000000  0.4938070000000 1.0
C      1  0.5200570000000  0.5340280000000  0.4714890000000 1.0
C      1  0.5456750000000  0.5298260000000  0.4748970000000 1.0
C      1  0.4519100000000  0.5093420000000  0.4593150000000 1.0
C      1  0.5412040000000  0.4785550000000  0.4582360000000 1.0
C      1  0.4528250000000  0.4640630000000  0.4783890000000 1.0
C      1  0.5472630000000  0.4610450000000  0.5039680000000 1.0
C      1  0.4541540000000  0.4642810000000  0.5343070000000 1.0
C      1  0.5481750000000  0.4922640000000  0.5411810000000 1.0
C      1  0.4537970000000  0.5149100000000  0.5350460000000 1.0
C      1  0.5476150000000  0.5349910000000  0.5224410000000 1.0
C      1  0.4582590000000  0.5470250000000  0.4919000000000 1.0
C      1  0.5479280000000  0.4930640000000  0.5678990000000 1.0
C      1  0.4560300000000  0.5348980000000  0.5507010000000 1.0
C      1  0.5474090000000  0.5616520000000  0.5271940000000 1.0
C      1  0.4534050000000  0.5677180000000  0.4830330000000 1.0
C      1  0.5437710000000  0.5379010000000  0.4506990000000 1.0
C      1  0.4526610000000  0.5056620000000  0.4326990000000 1.0
C      1  0.5458090000000  0.4634150000000  0.4414650000000 1.0
C      1  0.4548800000000  0.4379560000000  0.4786790000000 1.0
C      1  0.5452400000000  0.4379780000000  0.5177790000000 1.0
C      1  0.4543290000000  0.4557410000000  0.5559770000000 1.0
C      1  0.5472810000000  0.5488990000000  0.5453980000000 1.0
C      1  0.4550500000000  0.5650740000000  0.5067890000000 1.0
C      1  0.5442470000000  0.5538710000000  0.4679640000000 1.0
C      1  0.4527290000000  0.5271900000000  0.4401750000000 1.0
C      1  0.5441510000000  0.4868570000000  0.4361510000000 1.0
C      1  0.4514620000000  0.4456920000000  0.4573220000000 1.0
C      1  0.5458480000000  0.4367390000000  0.4949120000000 1.0
C      1  0.4498950000000  0.4394590000000  0.5403460000000 1.0
C      1  0.5497690000000  0.4729630000000  0.5592370000000 1.0
C      1  0.4557730000000  0.5134250000000  0.5605310000000 1.0
C      1  0.4903540000000  0.4698600000000  0.5365450000000 1.0
C      1  0.5177180000000  0.4903760000000  0.5624610000000 1.0
C      1  0.4909420000000  0.5241520000000  0.5423080000000 1.0
C      1  0.5161460000000  0.5531270000000  0.5296270000000 1.0
C      1  0.4968910000000  0.5532970000000  0.4914200000000 1.0
C      1  0.5091790000000  0.5351950000000  0.4626840000000 1.0
C      1  0.4840210000000  0.5128210000000  0.4417550000000 1.0
C      1  0.5030290000000  0.4764060000000  0.4515310000000 1.0
C      1  0.4888390000000  0.4533820000000  0.4766180000000 1.0
C      1  0.5160560000000  0.4443180000000  0.5067110000000 1.0
C      1  0.4700380000000  0.5205570000000  0.4912220000000 1.0
C      1  0.5292350000000  0.5171180000000  0.4856790000000 1.0
C      1  0.4700760000000  0.5052770000000  0.4745860000000 1.0
C      1  0.5297930000000  0.4876980000000  0.4835730000000 1.0
C      1  0.4699490000000  0.4791760000000  0.4864230000000 1.0
C      1  0.5293910000000  0.4769850000000  0.5030370000000 1.0
C      1  0.4685770000000  0.4861310000000  0.5166470000000 1.0
C      1  0.5291240000000  0.4966260000000  0.5256680000000 1.0
C      1  0.4699110000000  0.5086850000000  0.5192920000000 1.0
C      1  0.5299660000000  0.5239580000000  0.5080020000000 1.0
C      1  0.5165890000000  0.5008320000000  0.5145880000000 1.0
C      1  0.4826070000000  0.5079190000000  0.5092480000000 1.0
C      1  0.5162850000000  0.5140140000000  0.5044560000000 1.0
C      1  0.4830750000000  0.5123930000000  0.4933300000000 1.0
C      1  0.5165350000000  0.5081160000000  0.4896880000000 1.0
C      1  0.4831010000000  0.4999440000000  0.4843290000000 1.0
C      1  0.5163550000000  0.4918430000000  0.4904480000000 1.0
C      1  0.4824400000000  0.4871800000000  0.4941920000000 1.0
C      1  0.5166090000000  0.4875300000000  0.5052190000000 1.0
C      1  0.4825450000000  0.4922720000000  0.5101640000000 1.0
C      1  0.4307480000000  0.5551470000000  0.5321080000000 1.0
C      1  0.5619740000000  0.5558600000000  0.4942350000000 1.0
C      1  0.4364450000000  0.5415690000000  0.4622820000000 1.0
C      1  0.5688060000000  0.5141680000000  0.4374860000000 1.0
C      1  0.4375810000000  0.4750810000000  0.4474760000000 1.0
C      1  0.5624730000000  0.4519820000000  0.4726610000000 1.0
C      1  0.4365640000000  0.4431520000000  0.5095410000000 1.0
C      1  0.5714000000000  0.4502320000000  0.5422880000000 1.0
C      1  0.4374180000000  0.4891860000000  0.5542450000000 1.0
C      1  0.5637600000000  0.5229600000000  0.5530940000000 1.0
C      1  0.4777610000000  0.4836550000000  0.4623050000000 1.0
C      1  0.5211020000000  0.4651530000000  0.4801990000000 1.0
C      1  0.4756880000000  0.4651470000000  0.5080510000000 1.0
C      1  0.5206770000000  0.4733720000000  0.5295090000000 1.0
C      1  0.4769730000000  0.4917940000000  0.5385060000000 1.0
C      1  0.5189320000000  0.5198800000000  0.5315100000000 1.0
C      1  0.4771780000000  0.5349380000000  0.5113670000000 1.0
C      1  0.5216050000000  0.5404130000000  0.4951150000000 1.0
C      1  0.4787970000000  0.5302250000000  0.4708760000000 1.0
C      1  0.5222340000000  0.5013210000000  0.4631940000000 1.0
C      1  0.4598710000000  0.5056200000000  0.5088030000000 1.0
C      1  0.5390900000000  0.5122180000000  0.5077440000000 1.0
C      1  0.4597730000000  0.5114360000000  0.4955090000000 1.0
C      1  0.5392560000000  0.5089730000000  0.4929610000000 1.0
C      1  0.4599970000000  0.5012150000000  0.4850440000000 1.0
C      1  0.5397650000000  0.4946840000000  0.4914290000000 1.0
C      1  0.4601780000000  0.4882320000000  0.4921510000000 1.0
C      1  0.5393930000000  0.4881200000000  0.5044390000000 1.0
C      1  0.4594780000000  0.4908920000000  0.5066190000000 1.0
C      1  0.5387730000000  0.4990690000000  0.5149200000000 1.0
C      1  0.4506070000000  0.5592420000000  0.4942630000000 1.0
C      1  0.5487730000000  0.5402400000000  0.4637280000000 1.0
C      1  0.4481610000000  0.5134710000000  0.4436410000000 1.0
C      1  0.5486370000000  0.4768710000000  0.4456870000000 1.0
C      1  0.4494310000000  0.4489710000000  0.4714070000000 1.0
C      1  0.5498980000000  0.4451600000000  0.5064260000000 1.0
C      1  0.4484160000000  0.4534070000000  0.5433580000000 1.0
C      1  0.5530500000000  0.4871340000000  0.5562500000000 1.0
C      1  0.4511530000000  0.5218040000000  0.5488900000000 1.0
C      1  0.5522270000000  0.5490060000000  0.5313090000000 1.0
C      1  0.4358130000000  0.4888470000000  0.4435210000000 1.0
C      1  0.5624820000000  0.4604330000000  0.4612120000000 1.0
C      1  0.4358790000000  0.4424540000000  0.4954260000000 1.0
C      1  0.5661190000000  0.4493100000000  0.5296980000000 1.0
C      1  0.4368480000000  0.4752550000000  0.5503690000000 1.0
C      1  0.5648540000000  0.5090870000000  0.5568670000000 1.0
C      1  0.4357890000000  0.5432110000000  0.5371200000000 1.0
C      1  0.5638660000000  0.5554460000000  0.5085560000000 1.0
C      1  0.4362310000000  0.5497240000000  0.4739780000000 1.0
C      1  0.5637970000000  0.5225790000000  0.4473720000000 1.0
C      1  0.4874540000000  0.5822470000000  0.4914660000000 1.0
C      1  0.5107460000000  0.5571340000000  0.4456930000000 1.0
C      1  0.4877560000000  0.5207470000000  0.4204840000000 1.0
C      1  0.5115800000000  0.4663310000000  0.4254290000000 1.0
C      1  0.4898520000000  0.4291410000000  0.4642800000000 1.0
C      1  0.5106310000000  0.4206230000000  0.5094560000000 1.0
C      1  0.4907880000000  0.4416360000000  0.5503630000000 1.0
C      1  0.5148610000000  0.4749120000000  0.5795900000000 1.0
C      1  0.4898390000000  0.5323200000000  0.5690740000000 1.0
C      1  0.5117430000000  0.5682490000000  0.5433280000000 1.0
C      1  0.5048750000000  0.5435640000000  0.5340590000000 1.0
C      1  0.4934880000000  0.5534500000000  0.5150310000000 1.0
C      1  0.5048250000000  0.5524620000000  0.4787770000000 1.0
C      1  0.4945780000000  0.5207640000000  0.4487160000000 1.0
C      1  0.5060040000000  0.4991070000000  0.4444360000000 1.0
C      1  0.4952750000000  0.4647450000000  0.4564440000000 1.0
C      1  0.5053040000000  0.4472800000000  0.4965500000000 1.0
C      1  0.4935340000000  0.4522080000000  0.5189020000000 1.0
C      1  0.5070520000000  0.4803060000000  0.5539910000000 1.0
C      1  0.4934690000000  0.5027900000000  0.5534510000000 1.0
C      1  0.4287670000000  0.4533940000000  0.4894340000000 1.0
C      1  0.5725330000000  0.4567280000000  0.5188050000000 1.0
C      1  0.4295230000000  0.4741930000000  0.5377140000000 1.0
C      1  0.5731230000000  0.5020680000000  0.5473100000000 1.0
C      1  0.4289900000000  0.5303740000000  0.5343920000000 1.0
C      1  0.5723190000000  0.5445810000000  0.5127220000000 1.0
C      1  0.4279830000000  0.5428790000000  0.4838010000000 1.0
C      1  0.5702970000000  0.5242710000000  0.4605210000000 1.0
C      1  0.4269730000000  0.4957680000000  0.4523890000000 1.0
C      1  0.5703220000000  0.4723660000000  0.4644390000000 1.0
C      1  0.5150650000000  0.5329120000000  0.5339710000000 1.0
C      1  0.4797730000000  0.5503240000000  0.5081100000000 1.0
C      1  0.5196130000000  0.5449660000000  0.4809740000000 1.0
C      1  0.4840010000000  0.5240540000000  0.4588210000000 1.0
C      1  0.5197600000000  0.4934270000000  0.4496440000000 1.0
C      1  0.4815150000000  0.4699930000000  0.4592060000000 1.0
C      1  0.5152080000000  0.4573760000000  0.4908740000000 1.0
C      1  0.4789460000000  0.4567890000000  0.5206850000000 1.0
C      1  0.5173760000000  0.4785790000000  0.5433950000000 1.0
C      1  0.4789860000000  0.5044120000000  0.5470740000000 1.0
C      1  0.4987690000000  0.4363460000000  0.4886470000000 1.0
C      1  0.5016800000000  0.4409440000000  0.5243110000000 1.0
C      1  0.5008940000000  0.4672730000000  0.5587110000000 1.0
C      1  0.4983320000000  0.5056780000000  0.5686520000000 1.0
C      1  0.4959190000000  0.5486490000000  0.5470580000000 1.0
C      1  0.5000530000000  0.5682360000000  0.5220930000000 1.0
C      1  0.5021380000000  0.5672870000000  0.4697700000000 1.0
C      1  0.5035840000000  0.5307750000000  0.4387820000000 1.0
C      1  0.4996970000000  0.5009920000000  0.4283390000000 1.0
C      1  0.4971590000000  0.4498860000000  0.4463250000000 1.0
C      1  0.4950640000000  0.5794280000000  0.5152780000000 1.0
C      1  0.5068420000000  0.5791620000000  0.4767020000000 1.0
C      1  0.4962290000000  0.5410380000000  0.4321860000000 1.0
C      1  0.5035340000000  0.4896580000000  0.4210900000000 1.0
C      1  0.4915260000000  0.4536550000000  0.4333650000000 1.0
C      1  0.5031940000000  0.4236890000000  0.4852740000000 1.0
C      1  0.4957930000000  0.4292870000000  0.5287970000000 1.0
C      1  0.5075040000000  0.4562380000000  0.5634040000000 1.0
C      1  0.4982460000000  0.4947330000000  0.5785090000000 1.0
C      1  0.5032880000000  0.5511760000000  0.5590380000000 1.0
C      1  0.4150420000000  0.5233770000000  0.5033320000000 1.0
C      1  0.5838650000000  0.5205110000000  0.4888990000000 1.0
C      1  0.4137320000000  0.5062810000000  0.4844690000000 1.0
C      1  0.5840780000000  0.4968650000000  0.4761190000000 1.0
C      1  0.4157570000000  0.4814290000000  0.4834580000000 1.0
C      1  0.5855260000000  0.4839460000000  0.4978870000000 1.0
C      1  0.4152200000000  0.4788000000000  0.5104630000000 1.0
C      1  0.5840790000000  0.4899490000000  0.5217780000000 1.0
C      1  0.4151340000000  0.5041650000000  0.5221030000000 1.0
C      1  0.5845160000000  0.5163800000000  0.5160880000000 1.0
C      1  0.5363940000000  0.5668270000000  0.5356700000000 1.0
C      1  0.4655090000000  0.5747010000000  0.4869880000000 1.0
C      1  0.5342040000000  0.5485100000000  0.4478170000000 1.0
C      1  0.4633690000000  0.5128320000000  0.4251900000000 1.0
C      1  0.5336960000000  0.4647530000000  0.4336620000000 1.0
C      1  0.4655220000000  0.4323640000000  0.4706860000000 1.0
C      1  0.5352350000000  0.4278570000000  0.5138120000000 1.0
C      1  0.4671610000000  0.4481420000000  0.5545880000000 1.0
C      1  0.5383550000000  0.4845050000000  0.5751700000000 1.0
C      1  0.4660380000000  0.5340240000000  0.5613410000000 1.0
C      1  0.5133060000000  0.4803980000000  0.4211690000000 1.0
C      1  0.4885250000000  0.4378230000000  0.4523200000000 1.0
C      1  0.5133050000000  0.4196610000000  0.4950480000000 1.0
C      1  0.4865390000000  0.4322430000000  0.5393250000000 1.0
C      1  0.5174170000000  0.4620330000000  0.5724920000000 1.0
C      1  0.4890670000000  0.5181310000000  0.5723730000000 1.0
C      1  0.5139750000000  0.5601230000000  0.5552460000000 1.0
C      1  0.4856440000000  0.5819350000000  0.5060060000000 1.0
C      1  0.5116770000000  0.5649470000000  0.4580700000000 1.0
C      1  0.4853790000000  0.5343220000000  0.4250920000000 1.0
C      1  0.5607160000000  0.4898490000000  0.4786370000000 1.0
C      1  0.4411080000000  0.4743210000000  0.4843900000000 1.0
C      1  0.5589760000000  0.4722040000000  0.5040900000000 1.0
C      1  0.4389090000000  0.4808490000000  0.5157690000000 1.0
C      1  0.5590300000000  0.4945730000000  0.5293660000000 1.0
C      1  0.4415180000000  0.5112530000000  0.5242570000000 1.0
C      1  0.5586960000000  0.5251330000000  0.5156700000000 1.0
C      1  0.4381560000000  0.5246830000000  0.4953680000000 1.0
C      1  0.5578040000000  0.5210990000000  0.4822040000000 1.0
C      1  0.4404390000000  0.5050480000000  0.4702200000000 1.0
C      1  0.4690960000000  0.4560880000000  0.4979010000000 1.0
C      1  0.5310140000000  0.4612480000000  0.5243930000000 1.0
C      1  0.4698190000000  0.4799190000000  0.5485850000000 1.0
C      1  0.5311520000000  0.5111000000000  0.5493670000000 1.0
C      1  0.4696780000000  0.5343510000000  0.5248810000000 1.0
C      1  0.5295500000000  0.5499360000000  0.5059100000000 1.0
C      1  0.4725040000000  0.5462790000000  0.4717210000000 1.0
C      1  0.5296900000000  0.5143370000000  0.4594910000000 1.0
C      1  0.4703590000000  0.4908710000000  0.4507110000000 1.0
C      1  0.5265440000000  0.4598330000000  0.4651890000000 1.0
C      1  0.5769270000000  0.4820580000000  0.4574030000000 1.0
C      1  0.4220200000000  0.4577940000000  0.4780060000000 1.0
C      1  0.5786100000000  0.4527500000000  0.5067090000000 1.0
C      1  0.4227230000000  0.4650300000000  0.5303830000000 1.0
C      1  0.5800640000000  0.4903180000000  0.5459240000000 1.0
C      1  0.4219900000000  0.5201760000000  0.5406060000000 1.0
C      1  0.5798240000000  0.5401390000000  0.5233390000000 1.0
C      1  0.4213940000000  0.5462810000000  0.4953330000000 1.0
C      1  0.5771690000000  0.5334630000000  0.4683520000000 1.0
C      1  0.4204340000000  0.5081190000000  0.4518450000000 1.0
C      1  0.4226480000000  0.5176890000000  0.4599350000000 1.0
C      1  0.5771050000000  0.4941880000000  0.4635720000000 1.0
C      1  0.4210030000000  0.4711150000000  0.4743090000000 1.0
C      1  0.5761620000000  0.4577290000000  0.4952050000000 1.0
C      1  0.4218890000000  0.4668640000000  0.5169180000000 1.0
C      1  0.5788820000000  0.4835410000000  0.5339570000000 1.0
C      1  0.4209670000000  0.5074330000000  0.5353740000000 1.0
C      1  0.5799330000000  0.5266610000000  0.5257660000000 1.0
C      1  0.4215360000000  0.5365090000000  0.5047400000000 1.0
C      1  0.5781620000000  0.5323730000000  0.4821130000000 1.0
C      1  0.5315650000000  0.4822110000000  0.5269450000000 1.0
C      1  0.4670790000000  0.4954910000000  0.5285380000000 1.0
C      1  0.5326100000000  0.5181190000000  0.5368430000000 1.0
C      1  0.4679930000000  0.5297180000000  0.5017240000000 1.0
C      1  0.5315030000000  0.5297950000000  0.4943070000000 1.0
C      1  0.4679490000000  0.5211620000000  0.4757610000000 1.0
C      1  0.5314700000000  0.4940590000000  0.4712380000000 1.0
C      1  0.4666000000000  0.4822520000000  0.4718410000000 1.0
C      1  0.5318070000000  0.4728680000000  0.4873730000000 1.0
C      1  0.4648000000000  0.4725310000000  0.5137910000000 1.0
C      1  0.5569470000000  0.4602310000000  0.5565700000000 1.0
C      1  0.4485430000000  0.5032170000000  0.5697290000000 1.0
C      1  0.5528320000000  0.5430210000000  0.5580460000000 1.0
C      1  0.4476820000000  0.5680650000000  0.5197340000000 1.0
C      1  0.5510220000000  0.5654900000000  0.4754300000000 1.0
C      1  0.4464440000000  0.5411110000000  0.4406620000000 1.0
C      1  0.5515920000000  0.4981630000000  0.4290110000000 1.0
C      1  0.4488960000000  0.4541120000000  0.4454630000000 1.0
C      1  0.5522850000000  0.4320950000000  0.4817310000000 1.0
C      1  0.4426550000000  0.4329280000000  0.5312230000000 1.0
C      1  0.4563460000000  0.4604400000000  0.5205610000000 1.0
C      1  0.5427190000000  0.4790780000000  0.5365930000000 1.0
C      1  0.4567260000000  0.5006490000000  0.5399310000000 1.0
C      1  0.5437580000000  0.5274020000000  0.5355540000000 1.0
C      1  0.4566850000000  0.5377360000000  0.5017030000000 1.0
C      1  0.5421650000000  0.5391720000000  0.4866470000000 1.0
C      1  0.4560760000000  0.5237170000000  0.4645940000000 1.0
C      1  0.5426670000000  0.4909370000000  0.4637660000000 1.0
C      1  0.4573640000000  0.4715300000000  0.4661950000000 1.0
C      1  0.5431980000000  0.4610000000000  0.4885760000000 1.0
C      1  0.4187640000000  0.5163390000000  0.5151110000000 1.0
C      1  0.5812350000000  0.5219170000000  0.5032020000000 1.0
C      1  0.4161550000000  0.5185820000000  0.4897520000000 1.0
C      1  0.5803400000000  0.5102230000000  0.4795120000000 1.0
C      1  0.4177960000000  0.4948660000000  0.4781750000000 1.0
C      1  0.5829350000000  0.4854650000000  0.4847160000000 1.0
C      1  0.4187900000000  0.4766790000000  0.4965710000000 1.0
C      1  0.5816250000000  0.4812850000000  0.5105850000000 1.0
C      1  0.4174810000000  0.4899760000000  0.5195020000000 1.0
C      1  0.5815020000000  0.5038630000000  0.5227700000000 1.0
C      1  0.5059460000000  0.5119990000000  0.4526620000000 1.0
C      1  0.4957460000000  0.4890670000000  0.4498060000000 1.0
C      1  0.5011830000000  0.4590650000000  0.4694560000000 1.0
C      1  0.4933150000000  0.4527980000000  0.5035860000000 1.0
C      1  0.5001210000000  0.4626710000000  0.5273550000000 1.0
C      1  0.4952210000000  0.4881490000000  0.5498030000000 1.0
C      1  0.5021490000000  0.5143590000000  0.5465560000000 1.0
C      1  0.4935070000000  0.5419080000000  0.5246820000000 1.0
C      1  0.5038920000000  0.5510600000000  0.5039750000000 1.0
C      1  0.4978700000000  0.5426050000000  0.4696590000000 1.0
C      1  0.5006930000000  0.5148370000000  0.4222090000000 1.0
C      1  0.4983750000000  0.4618720000000  0.4246330000000 1.0
C      1  0.5016770000000  0.4235060000000  0.4703980000000 1.0
C      1  0.4971470000000  0.4231810000000  0.5153260000000 1.0
C      1  0.5049670000000  0.4446250000000  0.5543500000000 1.0
C      1  0.5026480000000  0.4821060000000  0.5822510000000 1.0
C      1  0.5017210000000  0.5403590000000  0.5688140000000 1.0
C      1  0.4989950000000  0.5689750000000  0.5371720000000 1.0
C      1  0.5006080000000  0.5847070000000  0.4875270000000 1.0
C      1  0.4985040000000  0.5541000000000  0.4384200000000 1.0
C      1  0.4723060000000  0.5358240000000  0.4303540000000 1.0
C      1  0.5256280000000  0.4870720000000  0.4225920000000 1.0
C      1  0.4746540000000  0.4403330000000  0.4499480000000 1.0
C      1  0.5262640000000  0.4242460000000  0.4909130000000 1.0
C      1  0.4728040000000  0.4319010000000  0.5357160000000 1.0
C      1  0.5305910000000  0.4616900000000  0.5675950000000 1.0
C      1  0.4756640000000  0.5135670000000  0.5725310000000 1.0
C      1  0.5270350000000  0.5549350000000  0.5557180000000 1.0
C      1  0.4734910000000  0.5778510000000  0.5116480000000 1.0
C      1  0.5246900000000  0.5652980000000  0.4637690000000 1.0
C      1  0.5365590000000  0.5250340000000  0.5676990000000 1.0
C      1  0.4604270000000  0.5577810000000  0.5394070000000 1.0
C      1  0.5367790000000  0.5714530000000  0.4965600000000 1.0
C      1  0.4629580000000  0.5574760000000  0.4526350000000 1.0
C      1  0.5388710000000  0.5200150000000  0.4324290000000 1.0
C      1  0.4643670000000  0.4727080000000  0.4363090000000 1.0
C      1  0.5360960000000  0.4378990000000  0.4621320000000 1.0
C      1  0.4595950000000  0.4293480000000  0.5021790000000 1.0
C      1  0.5435580000000  0.4431910000000  0.5425710000000 1.0
C      1  0.4632820000000  0.4817990000000  0.5727210000000 1.0
C      1  0.5089880000000  0.5072460000000  0.4667260000000 1.0
C      1  0.4901520000000  0.4918190000000  0.4634190000000 1.0
C      1  0.5079990000000  0.4704430000000  0.4774440000000 1.0
C      1  0.4886070000000  0.4664870000000  0.5007810000000 1.0
C      1  0.5091080000000  0.4709810000000  0.5204370000000 1.0
C      1  0.4903920000000  0.4852390000000  0.5352200000000 1.0
C      1  0.5087750000000  0.5100970000000  0.5341900000000 1.0
C      1  0.4903470000000  0.5296570000000  0.5161300000000 1.0
C      1  0.5093860000000  0.5372370000000  0.5026410000000 1.0
C      1  0.4912320000000  0.5316180000000  0.4781980000000 1.0
C      1  0.5278990000000  0.4469190000000  0.5436690000000 1.0
C      1  0.4779650000000  0.4847970000000  0.5708920000000 1.0
C      1  0.5220380000000  0.5284760000000  0.5636860000000 1.0
C      1  0.4758930000000  0.5580050000000  0.5356570000000 1.0
C      1  0.5221750000000  0.5699190000000  0.4943260000000 1.0
C      1  0.4777250000000  0.5535160000000  0.4504380000000 1.0
C      1  0.5234960000000  0.5166310000000  0.4335980000000 1.0
C      1  0.4775690000000  0.4759330000000  0.4328170000000 1.0
C      1  0.5213130000000  0.4369060000000  0.4666020000000 1.0
C      1  0.4745520000000  0.4319240000000  0.5068440000000 1.0
C      1  0.5557040000000  0.5432800000000  0.4907990000000 1.0
C      1  0.4427460000000  0.5291750000000  0.4668730000000 1.0
C      1  0.5508960000000  0.5015030000000  0.4592410000000 1.0
C      1  0.4438890000000  0.4754710000000  0.4606250000000 1.0
C      1  0.5562860000000  0.4612300000000  0.4822390000000 1.0
C      1  0.4458860000000  0.4561640000000  0.5108840000000 1.0
C      1  0.5534090000000  0.4709420000000  0.5321640000000 1.0
C      1  0.4431670000000  0.4963150000000  0.5428900000000 1.0
C      1  0.5576210000000  0.5241720000000  0.5399520000000 1.0
C      1  0.4482360000000  0.5385560000000  0.5130370000000 1.0
C      1  0.4869900000000  0.5671580000000  0.4708720000000 1.0
C      1  0.5142050000000  0.5338440000000  0.4486090000000 1.0
C      1  0.4850640000000  0.5013210000000  0.4322230000000 1.0
C      1  0.5124220000000  0.4511960000000  0.4460920000000 1.0
C      1  0.4858700000000  0.4406400000000  0.4844600000000 1.0
C      1  0.5159050000000  0.4407390000000  0.5212010000000 1.0
C      1  0.4880420000000  0.4658600000000  0.5530010000000 1.0
C      1  0.5128380000000  0.5044590000000  0.5649620000000 1.0
C      1  0.4857730000000  0.5378380000000  0.5464320000000 1.0
C      1  0.5145250000000  0.5648690000000  0.5203140000000 1.0
C      1  0.5107270000000  0.5222240000000  0.4283500000000 1.0
C      1  0.4852200000000  0.4653130000000  0.4278460000000 1.0
C      1  0.5134230000000  0.4252650000000  0.4638450000000 1.0
C      1  0.4854900000000  0.4233780000000  0.5080400000000 1.0
C      1  0.5162690000000  0.4401360000000  0.5481760000000 1.0
C      1  0.4887160000000  0.4846590000000  0.5813840000000 1.0
C      1  0.5129360000000  0.5341430000000  0.5729840000000 1.0
C      1  0.4887090000000  0.5612050000000  0.5425000000000 1.0
C      1  0.5142290000000  0.5809550000000  0.4887000000000 1.0
C      1  0.4867240000000  0.5599440000000  0.4416640000000 1.0
C      1  0.4575560000000  0.5678370000000  0.5298940000000 1.0
C      1  0.5407740000000  0.5717230000000  0.4826580000000 1.0
C      1  0.4574900000000  0.5493130000000  0.4427180000000 1.0
C      1  0.5416400000000  0.5077870000000  0.4258260000000 1.0
C      1  0.4609330000000  0.4591690000000  0.4399190000000 1.0
C      1  0.5412030000000  0.4311740000000  0.4733350000000 1.0
C      1  0.4548210000000  0.4287580000000  0.5153560000000 1.0
C      1  0.5466350000000  0.4519700000000  0.5527880000000 1.0
C      1  0.4588250000000  0.4952080000000  0.5749020000000 1.0
C      1  0.5415590000000  0.5377910000000  0.5644500000000 1.0
C      1  0.5338490000000  0.5506670000000  0.4795530000000 1.0
C      1  0.4635110000000  0.5281490000000  0.4512680000000 1.0
C      1  0.5321240000000  0.4958370000000  0.4413260000000 1.0
C      1  0.4699950000000  0.4619580000000  0.4613010000000 1.0
C      1  0.5354460000000  0.4468810000000  0.4895480000000 1.0
C      1  0.4667060000000  0.4494020000000  0.5217880000000 1.0
C      1  0.5369080000000  0.4737020000000  0.5493850000000 1.0
C      1  0.4656030000000  0.5031300000000  0.5543030000000 1.0
C      1  0.5359740000000  0.5385980000000  0.5419520000000 1.0
C      1  0.4672780000000  0.5572990000000  0.5132780000000 1.0
C      1  0.4775980000000  0.5103940000000  0.4231580000000 1.0
C      1  0.5198400000000  0.4589140000000  0.4349740000000 1.0
C      1  0.4794480000000  0.4309580000000  0.4742630000000 1.0
C      1  0.5210970000000  0.4270290000000  0.5173660000000 1.0
C      1  0.4813870000000  0.4516730000000  0.5551690000000 1.0
C      1  0.5239920000000  0.4851260000000  0.5752490000000 1.0
C      1  0.4796750000000  0.5376640000000  0.5602890000000 1.0
C      1  0.5220750000000  0.5686000000000  0.5329210000000 1.0
C      1  0.4794230000000  0.5754730000000  0.4813180000000 1.0
C      1  0.5206700000000  0.5467680000000  0.4439340000000 1.0
C      1  0.4962480000000  0.4962220000000  0.4763690000000 1.0
C      1  0.5039370000000  0.4837140000000  0.4841270000000 1.0
C      1  0.4950270000000  0.4788260000000  0.4968240000000 1.0
C      1  0.5038630000000  0.4810640000000  0.5107510000000 1.0
C      1  0.4949730000000  0.4904870000000  0.5203450000000 1.0
C      1  0.5032360000000  0.5042230000000  0.5218660000000 1.0
C      1  0.4948110000000  0.5160170000000  0.5141120000000 1.0
C      1  0.5033820000000  0.5233610000000  0.5026860000000 1.0
C      1  0.4957620000000  0.5205100000000  0.4880270000000 1.0
C      1  0.5046850000000  0.5099290000000  0.4801560000000 1.0
C      1  0.5409360000000  0.4712900000000  0.5711770000000 1.0
C      1  0.4650600000000  0.5215400000000  0.5679280000000 1.0
C      1  0.5379480000000  0.5600510000000  0.5479630000000 1.0
C      1  0.4638910000000  0.5754820000000  0.5015620000000 1.0
C      1  0.5353060000000  0.5584670000000  0.4577990000000 1.0
C      1  0.4617510000000  0.5263850000000  0.4285290000000 1.0
C      1  0.5352450000000  0.4783770000000  0.4281280000000 1.0
C      1  0.4630780000000  0.4369470000000  0.4573480000000 1.0
C      1  0.5369770000000  0.4261300000000  0.5000370000000 1.0
C      1  0.4636950000000  0.4375900000000  0.5451770000000 1.0
C      1  0.4340930000000  0.4788420000000  0.4708070000000 1.0
C      1  0.5662650000000  0.4676440000000  0.4906240000000 1.0
C      1  0.4355750000000  0.4673220000000  0.5096770000000 1.0
C      1  0.5652720000000  0.4790870000000  0.5281910000000 1.0
C      1  0.4341200000000  0.5001410000000  0.5327110000000 1.0
C      1  0.5662930000000  0.5204600000000  0.5291660000000 1.0
C      1  0.4354950000000  0.5316590000000  0.5092320000000 1.0
C      1  0.5650820000000  0.5325840000000  0.4902270000000 1.0
C      1  0.4327090000000  0.5193620000000  0.4705490000000 1.0
C      1  0.5633380000000  0.5002580000000  0.4672440000000 1.0
C      1  0.4364960000000  0.5442360000000  0.4490660000000 1.0
C      1  0.5636030000000  0.5045070000000  0.4306790000000 1.0
C      1  0.4386140000000  0.4625760000000  0.4427560000000 1.0
C      1  0.5617840000000  0.4387610000000  0.4749840000000 1.0
C      1  0.4409620000000  0.4324990000000  0.5177460000000 1.0
C      1  0.5696950000000  0.4550260000000  0.5541790000000 1.0
C      1  0.4380580000000  0.4956910000000  0.5661870000000 1.0
C      1  0.5634040000000  0.5349440000000  0.5593760000000 1.0
C      1  0.4354000000000  0.5648160000000  0.5249310000000 1.0
C      1  0.5608640000000  0.5651170000000  0.4844510000000 1.0
C      1  0.5546840000000  0.4872690000000  0.5039830000000 1.0
C      1  0.4441000000000  0.4903690000000  0.5066860000000 1.0
C      1  0.5542220000000  0.4981680000000  0.5153690000000 1.0
C      1  0.4447630000000  0.5052630000000  0.5100450000000 1.0
C      1  0.5542480000000  0.5124540000000  0.5085080000000 1.0
C      1  0.4441960000000  0.5120040000000  0.4960440000000 1.0
C      1  0.5544260000000  0.5103580000000  0.4929560000000 1.0
C      1  0.4448470000000  0.5017270000000  0.4844060000000 1.0
C      1  0.5553840000000  0.4950780000000  0.4907550000000 1.0
C      1  0.4448180000000  0.4876820000000  0.4912290000000 1.0
C      1  0.4799870000000  0.4446760000000  0.4980620000000 1.0
C      1  0.5244560000000  0.4491370000000  0.5295400000000 1.0
C      1  0.4826270000000  0.4795260000000  0.5567830000000 1.0
C      1  0.5170120000000  0.5152510000000  0.5561310000000 1.0
C      1  0.4797830000000  0.5430180000000  0.5330040000000 1.0
C      1  0.5173040000000  0.5599320000000  0.5063680000000 1.0
C      1  0.4842790000000  0.5531050000000  0.4649850000000 1.0
C      1  0.5197250000000  0.5192740000000  0.4486160000000 1.0
C      1  0.4821160000000  0.4890450000000  0.4402260000000 1.0
C      1  0.5147980000000  0.4507620000000  0.4615960000000 1.0
C      1  0.4311930000000  0.4676130000000  0.4952990000000 1.0
C      1  0.5697240000000  0.4718640000000  0.5155120000000 1.0
C      1  0.4303840000000  0.4864090000000  0.5271640000000 1.0
C      1  0.5699770000000  0.5058820000000  0.5322950000000 1.0
C      1  0.4315130000000  0.5229050000000  0.5208310000000 1.0
C      1  0.5693330000000  0.5313220000000  0.5049100000000 1.0
C      1  0.4281610000000  0.5264620000000  0.4837400000000 1.0
C      1  0.5675230000000  0.5138520000000  0.4719080000000 1.0
C      1  0.4296170000000  0.4934540000000  0.4674780000000 1.0
C      1  0.5702410000000  0.4777050000000  0.4796270000000 1.0
C      1  0.4708600000000  0.4537710000000  0.4483000000000 1.0
C      1  0.5285550000000  0.4351780000000  0.4806940000000 1.0
C      1  0.4674760000000  0.4346100000000  0.5213050000000 1.0
C      1  0.5334060000000  0.4587300000000  0.5532480000000 1.0
C      1  0.4716590000000  0.4995210000000  0.5690750000000 1.0
C      1  0.5294850000000  0.5402460000000  0.5560560000000 1.0
C      1  0.4708380000000  0.5674260000000  0.5233280000000 1.0
C      1  0.5282220000000  0.5647040000000  0.4793640000000 1.0
C      1  0.4699640000000  0.5411430000000  0.4439620000000 1.0
C      1  0.5283610000000  0.5017030000000  0.4283780000000 1.0
C      1  0.4517440000000  0.4384930000000  0.4927610000000 1.0
C      1  0.5503100000000  0.4452510000000  0.5294240000000 1.0
C      1  0.4483640000000  0.4686300000000  0.5574140000000 1.0
C      1  0.5522560000000  0.5058900000000  0.5642530000000 1.0
C      1  0.4521560000000  0.5441510000000  0.5396070000000 1.0
C      1  0.5515630000000  0.5613240000000  0.5137870000000 1.0
C      1  0.4488630000000  0.5583820000000  0.4731130000000 1.0
C      1  0.5473630000000  0.5244910000000  0.4454280000000 1.0
C      1  0.4485250000000  0.4926570000000  0.4370330000000 1.0
C      1  0.5500630000000  0.4567090000000  0.4533810000000 1.0
C      1  0.5436240000000  0.5129220000000  0.4550730000000 1.0
C      1  0.4593350000000  0.4846980000000  0.4422460000000 1.0
C      1  0.5383980000000  0.4515230000000  0.4601120000000 1.0
C      1  0.4552960000000  0.4517910000000  0.4999480000000 1.0
C      1  0.5461250000000  0.4601180000000  0.5271990000000 1.0
C      1  0.4597730000000  0.4763470000000  0.5602340000000 1.0
C      1  0.5403390000000  0.5133110000000  0.5612610000000 1.0
C      1  0.4556680000000  0.5389240000000  0.5251410000000 1.0
C      1  0.5402700000000  0.5608200000000  0.5050450000000 1.0
C      1  0.4605610000000  0.5539790000000  0.4659610000000 1.0
C      1  0.4667230000000  0.4695970000000  0.5386220000000 1.0
C      1  0.5334840000000  0.4984060000000  0.5416410000000 1.0
C      1  0.4682950000000  0.5196080000000  0.5295040000000 1.0
C      1  0.5333330000000  0.5376250000000  0.5164640000000 1.0
C      1  0.4715010000000  0.5483740000000  0.4858790000000 1.0
C      1  0.5310150000000  0.5233740000000  0.4720020000000 1.0
C      1  0.4666470000000  0.5041040000000  0.4589350000000 1.0
C      1  0.5278180000000  0.4726010000000  0.4585980000000 1.0
C      1  0.4674000000000  0.4639940000000  0.4852030000000 1.0
C      1  0.5327850000000  0.4633760000000  0.5091130000000 1.0
END
