TITL C-69164-3690-4 -58.3493159322392 1000000 -3600.0264718466 0 0 520 (C1) n - 1
REM
REM in /rds/project/t2_vol4/rds-t2-cs072/BORA/CARBON/from-Arr/AIRSS/Generating-Clusters/GAP-ML-2020/Higher-Symm/Selected-Sizes/Larger-Clusters/Only-C240
REM
REM
REM
REM
REM
REM ./C.cell (db1db5b03a21c153a00b653f6831bbfd)
REM AIRSS Version 0.9.1 bugfix July 2018 build 013d7b7c2542+ Fri, 06 Jul 2018 19:26:36 +0100
REM compiler GCC version 9.3.0
REM options -cpp -mtune=generic -march=x86-64 -g -O0
REM seed 855437186 397932301 -1768689767 2129203853 1784785841 225579068 -694803464 -1320653842 -1002688641 -724942342 1006475147 1532495873 13868923 585216940 -882446540 -1494300456 1783560232 1375986121 -1207078115 -771256219 1219713247 -361856364 1952766026 1994136525 -1389831422 -1185398529 1878062299 -564442575 -1647820643 886120317 -437766083 -1178819013 -1681931206
REM
CELL 1.54180  100.00000  100.00000  100.00000   90.00000   90.00000   90.00000
LATT -1
SFAC C  
C      1  0.5280110000000  0.5613100000000  0.5294030000000 1.0
C      1  0.5275930000000  0.5286420000000  0.5610580000000 1.0
C      1  0.5592780000000  0.5297390000000  0.5290090000000 1.0
C      1  0.4730450000000  0.5603580000000  0.4721750000000 1.0
C      1  0.5262810000000  0.4385210000000  0.4716220000000 1.0
C      1  0.4724610000000  0.4395890000000  0.5288380000000 1.0
C      1  0.4715660000000  0.5289330000000  0.4394470000000 1.0
C      1  0.5277920000000  0.4716760000000  0.4396420000000 1.0
C      1  0.4720940000000  0.4712300000000  0.5591980000000 1.0
C      1  0.4404930000000  0.5302300000000  0.4710570000000 1.0
C      1  0.5595130000000  0.4701730000000  0.4713220000000 1.0
C      1  0.4411490000000  0.4720850000000  0.5268820000000 1.0
C      1  0.4791610000000  0.5265210000000  0.5722650000000 1.0
C      1  0.5716900000000  0.4791510000000  0.5253020000000 1.0
C      1  0.5205680000000  0.5664810000000  0.4846610000000 1.0
C      1  0.5201830000000  0.5251240000000  0.4280220000000 1.0
C      1  0.4792490000000  0.4757510000000  0.4273980000000 1.0
C      1  0.5212030000000  0.4745740000000  0.5704510000000 1.0
C      1  0.4297400000000  0.4800690000000  0.4758140000000 1.0
C      1  0.5714250000000  0.5185680000000  0.4785790000000 1.0
C      1  0.4291180000000  0.5201880000000  0.5246020000000 1.0
C      1  0.4752880000000  0.5725170000000  0.5211670000000 1.0
C      1  0.5234020000000  0.4276250000000  0.5194440000000 1.0
C      1  0.4760180000000  0.4277400000000  0.4793120000000 1.0
C      1  0.4904820000000  0.4703810000000  0.5045550000000 1.0
C      1  0.5002880000000  0.4836020000000  0.4705580000000 1.0
C      1  0.4735360000000  0.5046770000000  0.4862190000000 1.0
C      1  0.5147370000000  0.4722200000000  0.4947980000000 1.0
C      1  0.4880160000000  0.5261510000000  0.4926230000000 1.0
C      1  0.5126050000000  0.5282180000000  0.5056030000000 1.0
C      1  0.4961910000000  0.4876590000000  0.5281680000000 1.0
C      1  0.5003010000000  0.5167820000000  0.5306370000000 1.0
C      1  0.5001950000000  0.5128540000000  0.4687260000000 1.0
C      1  0.5285790000000  0.5033190000000  0.5155920000000 1.0
C      1  0.4764110000000  0.4950780000000  0.5148020000000 1.0
C      1  0.5291260000000  0.4938850000000  0.4887960000000 1.0
C      1  0.5650600000000  0.4924530000000  0.4825780000000 1.0
C      1  0.4825560000000  0.5661380000000  0.4939880000000 1.0
C      1  0.4933700000000  0.4816670000000  0.5610420000000 1.0
C      1  0.4360610000000  0.4935810000000  0.5178580000000 1.0
C      1  0.5622850000000  0.5088680000000  0.5184580000000 1.0
C      1  0.4390880000000  0.5090980000000  0.4808050000000 1.0
C      1  0.5153970000000  0.5667910000000  0.5082620000000 1.0
C      1  0.4840620000000  0.4348950000000  0.5079840000000 1.0
C      1  0.5159930000000  0.4294770000000  0.4927780000000 1.0
C      1  0.5068080000000  0.4839920000000  0.4355880000000 1.0
C      1  0.4926080000000  0.5171100000000  0.4358480000000 1.0
C      1  0.5059500000000  0.5197950000000  0.5655750000000 1.0
C      1  0.4721930000000  0.5161940000000  0.5651990000000 1.0
C      1  0.5677810000000  0.4689740000000  0.5165690000000 1.0
C      1  0.5137890000000  0.5644830000000  0.4720320000000 1.0
C      1  0.5297960000000  0.5162770000000  0.4327560000000 1.0
C      1  0.4689450000000  0.4844980000000  0.4317240000000 1.0
C      1  0.5283950000000  0.4863810000000  0.5662220000000 1.0
C      1  0.4361180000000  0.4712470000000  0.4851090000000 1.0
C      1  0.5686020000000  0.5303760000000  0.4849050000000 1.0
C      1  0.4353930000000  0.5291030000000  0.5156860000000 1.0
C      1  0.4843150000000  0.5670140000000  0.5302050000000 1.0
C      1  0.5156160000000  0.4329200000000  0.5294070000000 1.0
C      1  0.4860650000000  0.4324060000000  0.4703800000000 1.0
C      1  0.5163550000000  0.4290680000000  0.5577640000000 1.0
C      1  0.5584530000000  0.5148280000000  0.4334980000000 1.0
C      1  0.4305970000000  0.5577720000000  0.5158460000000 1.0
C      1  0.4845080000000  0.4283040000000  0.4381410000000 1.0
C      1  0.5168480000000  0.5701290000000  0.4435290000000 1.0
C      1  0.4837590000000  0.5719030000000  0.5589040000000 1.0
C      1  0.4435540000000  0.5155730000000  0.5697880000000 1.0
C      1  0.5572970000000  0.4855740000000  0.5704300000000 1.0
C      1  0.4409450000000  0.4865580000000  0.4296930000000 1.0
C      1  0.5681780000000  0.5593060000000  0.4853010000000 1.0
C      1  0.4306460000000  0.4421680000000  0.4834740000000 1.0
C      1  0.5687650000000  0.4404510000000  0.5145690000000 1.0
C      1  0.4688070000000  0.5072450000000  0.5132610000000 1.0
C      1  0.5145850000000  0.4645480000000  0.5071640000000 1.0
C      1  0.5111540000000  0.5236080000000  0.4666650000000 1.0
C      1  0.5337900000000  0.5068500000000  0.4872390000000 1.0
C      1  0.4638300000000  0.4940880000000  0.4873790000000 1.0
C      1  0.5345550000000  0.4906090000000  0.5226690000000 1.0
C      1  0.4915330000000  0.4640620000000  0.4921160000000 1.0
C      1  0.5122510000000  0.5362460000000  0.4937580000000 1.0
C      1  0.4882060000000  0.5331500000000  0.5052040000000 1.0
C      1  0.4895820000000  0.5269420000000  0.5323060000000 1.0
C      1  0.5078520000000  0.4892110000000  0.5363790000000 1.0
C      1  0.4865990000000  0.4802120000000  0.4675980000000 1.0
C      1  0.4724000000000  0.4909830000000  0.5708190000000 1.0
C      1  0.5718890000000  0.4693430000000  0.4907950000000 1.0
C      1  0.4915140000000  0.5741130000000  0.4710140000000 1.0
C      1  0.5293490000000  0.4914710000000  0.4278900000000 1.0
C      1  0.4707990000000  0.5093090000000  0.4267320000000 1.0
C      1  0.5279800000000  0.5096320000000  0.5750720000000 1.0
C      1  0.4272670000000  0.4714070000000  0.5081720000000 1.0
C      1  0.5719370000000  0.5311500000000  0.5097080000000 1.0
C      1  0.4290060000000  0.5288730000000  0.4913470000000 1.0
C      1  0.5086250000000  0.5732130000000  0.5308690000000 1.0
C      1  0.4918640000000  0.4271170000000  0.5293890000000 1.0
C      1  0.5084290000000  0.4241930000000  0.4682610000000 1.0
C      1  0.4670860000000  0.5212170000000  0.4196100000000 1.0
C      1  0.4209820000000  0.4669040000000  0.5201780000000 1.0
C      1  0.5211920000000  0.4182820000000  0.4649810000000 1.0
C      1  0.5326370000000  0.5216010000000  0.5811340000000 1.0
C      1  0.4687110000000  0.4793150000000  0.5788550000000 1.0
C      1  0.5331370000000  0.4799400000000  0.4202010000000 1.0
C      1  0.5792490000000  0.4651930000000  0.4790590000000 1.0
C      1  0.4211350000000  0.5336860000000  0.4800850000000 1.0
C      1  0.5794290000000  0.5338780000000  0.5216930000000 1.0
C      1  0.4802170000000  0.4198510000000  0.5332710000000 1.0
C      1  0.5205810000000  0.5811550000000  0.5339450000000 1.0
C      1  0.4793410000000  0.5808310000000  0.4670970000000 1.0
C      1  0.5072240000000  0.4847470000000  0.4938780000000 1.0
C      1  0.5001970000000  0.5055290000000  0.4811560000000 1.0
C      1  0.4865410000000  0.4937910000000  0.5045260000000 1.0
C      1  0.4948290000000  0.4830280000000  0.5015220000000 1.0
C      1  0.5067270000000  0.5141200000000  0.5058200000000 1.0
C      1  0.4961710000000  0.5134710000000  0.4930280000000 1.0
C      1  0.4994520000000  0.5096100000000  0.5181630000000 1.0
C      1  0.4916600000000  0.4975910000000  0.5186880000000 1.0
C      1  0.5039370000000  0.4917260000000  0.4810430000000 1.0
C      1  0.5187220000000  0.4923450000000  0.4981490000000 1.0
C      1  0.4851140000000  0.5042330000000  0.4943460000000 1.0
C      1  0.5171710000000  0.5031230000000  0.5073300000000 1.0
C      1  0.4282500000000  0.5459320000000  0.4820920000000 1.0
C      1  0.4822620000000  0.4271780000000  0.5454340000000 1.0
C      1  0.5445660000000  0.4821780000000  0.4284830000000 1.0
C      1  0.5711020000000  0.5455030000000  0.5181590000000 1.0
C      1  0.4293130000000  0.4556870000000  0.5167960000000 1.0
C      1  0.5710470000000  0.4537790000000  0.4819130000000 1.0
C      1  0.5156420000000  0.4281830000000  0.4551370000000 1.0
C      1  0.4836820000000  0.5721100000000  0.4563570000000 1.0
C      1  0.5172490000000  0.5730990000000  0.5453180000000 1.0
C      1  0.4567970000000  0.4823320000000  0.5714890000000 1.0
C      1  0.5439210000000  0.5183850000000  0.5728150000000 1.0
C      1  0.4549390000000  0.5194810000000  0.4269480000000 1.0
C      1  0.4537110000000  0.5355930000000  0.5429690000000 1.0
C      1  0.5441070000000  0.4526390000000  0.5342880000000 1.0
C      1  0.5359020000000  0.5431180000000  0.4536170000000 1.0
C      1  0.5467030000000  0.5348160000000  0.4581600000000 1.0
C      1  0.4529340000000  0.4657000000000  0.4562800000000 1.0
C      1  0.5473630000000  0.4642410000000  0.5423840000000 1.0
C      1  0.4567960000000  0.4542810000000  0.4638050000000 1.0
C      1  0.5433580000000  0.5468390000000  0.4651700000000 1.0
C      1  0.4565570000000  0.5473740000000  0.5355940000000 1.0
C      1  0.4644020000000  0.5440190000000  0.5469260000000 1.0
C      1  0.5367970000000  0.4555820000000  0.5459740000000 1.0
C      1  0.4645370000000  0.4586930000000  0.4524190000000 1.0
C      1  0.4559300000000  0.4469100000000  0.4770040000000 1.0
C      1  0.4769100000000  0.4576160000000  0.4450220000000 1.0
C      1  0.4455550000000  0.4785680000000  0.4544850000000 1.0
C      1  0.5442640000000  0.4446380000000  0.5212680000000 1.0
C      1  0.4553860000000  0.5543360000000  0.5223120000000 1.0
C      1  0.5439260000000  0.5545310000000  0.4779850000000 1.0
C      1  0.5240070000000  0.4538470000000  0.5530550000000 1.0
C      1  0.4772760000000  0.5463960000000  0.5542260000000 1.0
C      1  0.5225540000000  0.5450170000000  0.4467470000000 1.0
C      1  0.5530760000000  0.4781080000000  0.5452350000000 1.0
C      1  0.4466860000000  0.5224790000000  0.5447700000000 1.0
C      1  0.5530130000000  0.5209090000000  0.4575640000000 1.0
C      1  0.5457030000000  0.4525860000000  0.4831200000000 1.0
C      1  0.4837590000000  0.5469040000000  0.4537560000000 1.0
C      1  0.4547650000000  0.4833560000000  0.5461420000000 1.0
C      1  0.4550760000000  0.4539250000000  0.5159430000000 1.0
C      1  0.5458530000000  0.5472050000000  0.5171580000000 1.0
C      1  0.4539900000000  0.5468210000000  0.4832260000000 1.0
C      1  0.5165190000000  0.5482660000000  0.5472390000000 1.0
C      1  0.4842780000000  0.4531920000000  0.5461390000000 1.0
C      1  0.5150020000000  0.4529930000000  0.4530890000000 1.0
C      1  0.5451480000000  0.4825380000000  0.4540310000000 1.0
C      1  0.4537210000000  0.5184110000000  0.4525240000000 1.0
C      1  0.5458420000000  0.5177850000000  0.5474350000000 1.0
C      1  0.4958870000000  0.4746130000000  0.5738510000000 1.0
C      1  0.5771850000000  0.4911310000000  0.4729680000000 1.0
C      1  0.4719390000000  0.5777680000000  0.4927690000000 1.0
C      1  0.5080570000000  0.4739040000000  0.4234210000000 1.0
C      1  0.4912280000000  0.5277310000000  0.4242270000000 1.0
C      1  0.5088450000000  0.5299510000000  0.5772510000000 1.0
C      1  0.4244350000000  0.4911440000000  0.5279760000000 1.0
C      1  0.5744080000000  0.5083590000000  0.5268820000000 1.0
C      1  0.4261360000000  0.5087270000000  0.4740220000000 1.0
C      1  0.5263220000000  0.5777170000000  0.5076300000000 1.0
C      1  0.4728780000000  0.4238970000000  0.5097680000000 1.0
C      1  0.5274490000000  0.4190590000000  0.4923990000000 1.0
C      1  0.4715510000000  0.5399260000000  0.4492780000000 1.0
C      1  0.4506930000000  0.4716120000000  0.5381360000000 1.0
C      1  0.5374730000000  0.4481350000000  0.4714720000000 1.0
C      1  0.5280610000000  0.5399570000000  0.5513560000000 1.0
C      1  0.4718680000000  0.4603970000000  0.5497560000000 1.0
C      1  0.5274150000000  0.4606290000000  0.4494200000000 1.0
C      1  0.5493950000000  0.4701990000000  0.4609800000000 1.0
C      1  0.4499080000000  0.5304910000000  0.4601160000000 1.0
C      1  0.5496510000000  0.5298770000000  0.5399180000000 1.0
C      1  0.4618350000000  0.4496300000000  0.5284270000000 1.0
C      1  0.5384750000000  0.5513410000000  0.5294180000000 1.0
C      1  0.4617630000000  0.5511000000000  0.4714530000000 1.0
C      1  0.5040340000000  0.4519740000000  0.4294860000000 1.0
C      1  0.4308790000000  0.5059380000000  0.4514810000000 1.0
C      1  0.4521580000000  0.4317850000000  0.5035860000000 1.0
C      1  0.4969450000000  0.4520090000000  0.5681710000000 1.0
C      1  0.5038710000000  0.5508900000000  0.5692530000000 1.0
C      1  0.4961840000000  0.5496090000000  0.4312920000000 1.0
C      1  0.5680470000000  0.5053350000000  0.5488730000000 1.0
C      1  0.4325830000000  0.4953930000000  0.5489820000000 1.0
C      1  0.5675620000000  0.4941170000000  0.4528180000000 1.0
C      1  0.5468620000000  0.4303460000000  0.4945110000000 1.0
C      1  0.4518240000000  0.5686900000000  0.4955510000000 1.0
C      1  0.5470250000000  0.5692840000000  0.5048670000000 1.0
C      1  0.5015810000000  0.4861190000000  0.5827100000000 1.0
C      1  0.5861390000000  0.5013160000000  0.4751870000000 1.0
C      1  0.4729870000000  0.5872670000000  0.5027600000000 1.0
C      1  0.5009480000000  0.4823430000000  0.4146470000000 1.0
C      1  0.4985430000000  0.5196430000000  0.4150420000000 1.0
C      1  0.5007570000000  0.5228450000000  0.5867540000000 1.0
C      1  0.4149810000000  0.4988160000000  0.5204270000000 1.0
C      1  0.5847120000000  0.4996470000000  0.5242640000000 1.0
C      1  0.4175390000000  0.5012870000000  0.4821360000000 1.0
C      1  0.5248250000000  0.5868870000000  0.4967400000000 1.0
C      1  0.4798850000000  0.4143700000000  0.5016440000000 1.0
C      1  0.5267920000000  0.4109230000000  0.5033220000000 1.0
C      1  0.5375170000000  0.5119070000000  0.5346080000000 1.0
C      1  0.5358080000000  0.5368850000000  0.5104830000000 1.0
C      1  0.5106430000000  0.5382370000000  0.5369330000000 1.0
C      1  0.4644490000000  0.5116200000000  0.4629570000000 1.0
C      1  0.5343800000000  0.4882600000000  0.4641040000000 1.0
C      1  0.4648100000000  0.4898010000000  0.5359070000000 1.0
C      1  0.4641950000000  0.5366210000000  0.4896460000000 1.0
C      1  0.5369440000000  0.4637400000000  0.4890920000000 1.0
C      1  0.4683270000000  0.4622240000000  0.5096810000000 1.0
C      1  0.4893470000000  0.5340780000000  0.4622580000000 1.0
C      1  0.5083180000000  0.4626880000000  0.4631500000000 1.0
C      1  0.4916960000000  0.4641110000000  0.5364750000000 1.0
C      1  0.5518020000000  0.5073840000000  0.5688160000000 1.0
C      1  0.5674410000000  0.5542250000000  0.5074860000000 1.0
C      1  0.5062080000000  0.5696730000000  0.5536980000000 1.0
C      1  0.4465350000000  0.5087850000000  0.4309020000000 1.0
C      1  0.5528400000000  0.4928400000000  0.4328620000000 1.0
C      1  0.4490140000000  0.4935660000000  0.5678040000000 1.0
C      1  0.4324680000000  0.5528720000000  0.4935830000000 1.0
C      1  0.5673830000000  0.4455900000000  0.4927730000000 1.0
C      1  0.4334130000000  0.4479210000000  0.5056710000000 1.0
C      1  0.4944430000000  0.5685680000000  0.4478140000000 1.0
C      1  0.5053540000000  0.4319440000000  0.4458350000000 1.0
C      1  0.4936420000000  0.4314670000000  0.5529930000000 1.0
C      1  0.5374450000000  0.4511910000000  0.4419930000000 1.0
C      1  0.4424890000000  0.5411570000000  0.4509880000000 1.0
C      1  0.4520550000000  0.4421540000000  0.5383730000000 1.0
C      1  0.4610180000000  0.4514120000000  0.5574600000000 1.0
C      1  0.5385720000000  0.5490560000000  0.5589230000000 1.0
C      1  0.4617640000000  0.5497030000000  0.4419090000000 1.0
C      1  0.5571980000000  0.5400070000000  0.5491360000000 1.0
C      1  0.4427480000000  0.4612940000000  0.5473040000000 1.0
C      1  0.5565660000000  0.4595840000000  0.4514650000000 1.0
C      1  0.5463780000000  0.4410700000000  0.4606580000000 1.0
C      1  0.4527640000000  0.5592710000000  0.4609350000000 1.0
C      1  0.5479070000000  0.5588420000000  0.5400760000000 1.0
C      1  0.5000670000000  0.5203600000000  0.4484520000000 1.0
C      1  0.4481130000000  0.5019340000000  0.5210690000000 1.0
C      1  0.5203560000000  0.4417040000000  0.5006080000000 1.0
C      1  0.4983830000000  0.5227200000000  0.5528830000000 1.0
C      1  0.5021950000000  0.4924870000000  0.5607820000000 1.0
C      1  0.4998360000000  0.4804540000000  0.4479180000000 1.0
C      1  0.5566880000000  0.5046700000000  0.4783410000000 1.0
C      1  0.4400740000000  0.4987790000000  0.4902460000000 1.0
C      1  0.5569110000000  0.4975550000000  0.5116560000000 1.0
C      1  0.4825880000000  0.4455380000000  0.4981680000000 1.0
C      1  0.5143260000000  0.5588620000000  0.4961910000000 1.0
C      1  0.4795580000000  0.5537800000000  0.5016580000000 1.0
C      1  0.5036630000000  0.5331170000000  0.4577730000000 1.0
C      1  0.4585680000000  0.5040480000000  0.5324700000000 1.0
C      1  0.5367100000000  0.4636730000000  0.5048760000000 1.0
C      1  0.4964350000000  0.5345610000000  0.5431390000000 1.0
C      1  0.5062070000000  0.4659660000000  0.5402690000000 1.0
C      1  0.4922870000000  0.4573330000000  0.4636530000000 1.0
C      1  0.5340750000000  0.5039390000000  0.4639570000000 1.0
C      1  0.4582640000000  0.4980270000000  0.4649730000000 1.0
C      1  0.5401780000000  0.4974720000000  0.5344640000000 1.0
C      1  0.4707400000000  0.4561880000000  0.4951480000000 1.0
C      1  0.5360950000000  0.5366060000000  0.4948960000000 1.0
C      1  0.4683740000000  0.5430300000000  0.5035100000000 1.0
C      1  0.4542830000000  0.5197270000000  0.5035770000000 1.0
C      1  0.5054770000000  0.4519010000000  0.5194010000000 1.0
C      1  0.5214760000000  0.5039100000000  0.4544120000000 1.0
C      1  0.5465580000000  0.5239350000000  0.4948260000000 1.0
C      1  0.4514040000000  0.4795150000000  0.5032300000000 1.0
C      1  0.5462440000000  0.4766630000000  0.5046060000000 1.0
C      1  0.5041190000000  0.4470800000000  0.4809530000000 1.0
C      1  0.4962720000000  0.5495630000000  0.4795500000000 1.0
C      1  0.4967600000000  0.5481260000000  0.5198360000000 1.0
C      1  0.4814780000000  0.5050890000000  0.5446840000000 1.0
C      1  0.5205840000000  0.5050020000000  0.5506800000000 1.0
C      1  0.4789470000000  0.4948670000000  0.4506740000000 1.0
C      1  0.4959020000000  0.5101050000000  0.5446710000000 1.0
C      1  0.5460370000000  0.4885570000000  0.5130080000000 1.0
C      1  0.5038860000000  0.5485690000000  0.4938260000000 1.0
C      1  0.5096660000000  0.5120820000000  0.4566670000000 1.0
C      1  0.4872830000000  0.4843770000000  0.4536670000000 1.0
C      1  0.5064550000000  0.4987270000000  0.5483470000000 1.0
C      1  0.4523860000000  0.4946250000000  0.4973150000000 1.0
C      1  0.5468990000000  0.5113040000000  0.4873860000000 1.0
C      1  0.4548950000000  0.5056500000000  0.5083730000000 1.0
C      1  0.4928100000000  0.5472580000000  0.5052430000000 1.0
C      1  0.5092720000000  0.4505360000000  0.5053430000000 1.0
C      1  0.4970460000000  0.4504950000000  0.4943650000000 1.0
C      1  0.4508400000000  0.5409150000000  0.4398380000000 1.0
C      1  0.4411930000000  0.4507920000000  0.5379960000000 1.0
C      1  0.5368970000000  0.4401050000000  0.4503290000000 1.0
C      1  0.5490040000000  0.5397430000000  0.5604290000000 1.0
C      1  0.4507730000000  0.4610400000000  0.5587240000000 1.0
C      1  0.5482920000000  0.4601280000000  0.4403810000000 1.0
C      1  0.5578010000000  0.4490960000000  0.4606920000000 1.0
C      1  0.4411930000000  0.5514700000000  0.4605830000000 1.0
C      1  0.5589730000000  0.5505510000000  0.5398420000000 1.0
C      1  0.4608360000000  0.4401180000000  0.5493940000000 1.0
C      1  0.5386300000000  0.5602220000000  0.5505440000000 1.0
C      1  0.4623190000000  0.5605520000000  0.4506830000000 1.0
C      1  0.4202840000000  0.5111740000000  0.5175580000000 1.0
C      1  0.5171960000000  0.4175110000000  0.5109670000000 1.0
C      1  0.5108440000000  0.5171970000000  0.4206770000000 1.0
C      1  0.5802490000000  0.5088560000000  0.4850140000000 1.0
C      1  0.4203250000000  0.4883160000000  0.4830310000000 1.0
C      1  0.5784210000000  0.4897150000000  0.5179720000000 1.0
C      1  0.4822450000000  0.4197700000000  0.4894110000000 1.0
C      1  0.5146210000000  0.5807050000000  0.4906460000000 1.0
C      1  0.4816930000000  0.5812160000000  0.5114060000000 1.0
C      1  0.4883720000000  0.5205480000000  0.5816310000000 1.0
C      1  0.5099760000000  0.4766250000000  0.5787090000000 1.0
C      1  0.4884970000000  0.4840470000000  0.4203690000000 1.0
C      1  0.4703870000000  0.5126430000000  0.5510000000000 1.0
C      1  0.5553910000000  0.4660560000000  0.5103510000000 1.0
C      1  0.5078850000000  0.5517810000000  0.4690040000000 1.0
C      1  0.5318140000000  0.5107820000000  0.4455530000000 1.0
C      1  0.4668500000000  0.4892310000000  0.4453800000000 1.0
C      1  0.5306630000000  0.4927150000000  0.5531050000000 1.0
C      1  0.4496110000000  0.4693260000000  0.4911650000000 1.0
C      1  0.5557060000000  0.5338970000000  0.4892650000000 1.0
C      1  0.4494000000000  0.5310040000000  0.5116740000000 1.0
C      1  0.4886960000000  0.5531640000000  0.5313250000000 1.0
C      1  0.5129540000000  0.4470190000000  0.5306400000000 1.0
C      1  0.4929450000000  0.4453580000000  0.4714810000000 1.0
C      1  0.5731870000000  0.4636950000000  0.5043990000000 1.0
C      1  0.5053410000000  0.5744740000000  0.4659780000000 1.0
C      1  0.4673170000000  0.5047140000000  0.5724980000000 1.0
C      1  0.4271300000000  0.4653700000000  0.4947700000000 1.0
C      1  0.5738250000000  0.5367410000000  0.4962690000000 1.0
C      1  0.4279850000000  0.5345370000000  0.5046820000000 1.0
C      1  0.4950190000000  0.5748280000000  0.5359450000000 1.0
C      1  0.5048970000000  0.4255440000000  0.5353860000000 1.0
C      1  0.4944660000000  0.4235380000000  0.4631130000000 1.0
C      1  0.5355290000000  0.5048190000000  0.4270390000000 1.0
C      1  0.4642290000000  0.4961620000000  0.4248190000000 1.0
C      1  0.5337010000000  0.4959960000000  0.5755480000000 1.0
C      1  0.4910010000000  0.5480580000000  0.5460040000000 1.0
C      1  0.5442480000000  0.4923130000000  0.5470570000000 1.0
C      1  0.5474760000000  0.5461380000000  0.4912340000000 1.0
C      1  0.5084320000000  0.5466420000000  0.4549300000000 1.0
C      1  0.4893570000000  0.4527460000000  0.4504600000000 1.0
C      1  0.5105020000000  0.4527350000000  0.5443620000000 1.0
C      1  0.4540410000000  0.4925780000000  0.4519930000000 1.0
C      1  0.5442500000000  0.5082740000000  0.4533410000000 1.0
C      1  0.4555940000000  0.5090880000000  0.5462120000000 1.0
C      1  0.4544530000000  0.5457080000000  0.5087680000000 1.0
C      1  0.5473130000000  0.4533370000000  0.5085190000000 1.0
C      1  0.4557130000000  0.4549350000000  0.4911510000000 1.0
C      1  0.4261590000000  0.4974560000000  0.4944410000000 1.0
C      1  0.4925790000000  0.4231860000000  0.5011310000000 1.0
C      1  0.4994260000000  0.4934900000000  0.4258600000000 1.0
C      1  0.5701830000000  0.4951830000000  0.5065700000000 1.0
C      1  0.4252380000000  0.5004490000000  0.5085490000000 1.0
C      1  0.5733510000000  0.4984800000000  0.4934650000000 1.0
C      1  0.5066600000000  0.4211850000000  0.5012920000000 1.0
C      1  0.4916540000000  0.5752350000000  0.5025000000000 1.0
C      1  0.5053770000000  0.5758280000000  0.5012620000000 1.0
C      1  0.5009180000000  0.4974890000000  0.5744400000000 1.0
C      1  0.4985170000000  0.5110260000000  0.5762490000000 1.0
C      1  0.5001230000000  0.5079870000000  0.4259160000000 1.0
C      1  0.4754830000000  0.5322080000000  0.4255760000000 1.0
C      1  0.4269280000000  0.4748790000000  0.5311210000000 1.0
C      1  0.5315950000000  0.4244390000000  0.4723580000000 1.0
C      1  0.5244820000000  0.5327320000000  0.5751430000000 1.0
C      1  0.4753590000000  0.4676430000000  0.5732930000000 1.0
C      1  0.5253230000000  0.4686890000000  0.4254160000000 1.0
C      1  0.5736960000000  0.4723380000000  0.4675170000000 1.0
C      1  0.4263770000000  0.5267260000000  0.4682000000000 1.0
C      1  0.5733490000000  0.5266320000000  0.5326140000000 1.0
C      1  0.4689180000000  0.4256400000000  0.5250180000000 1.0
C      1  0.5319200000000  0.5753150000000  0.5268610000000 1.0
C      1  0.4684010000000  0.5746180000000  0.4743000000000 1.0
C      1  0.5370890000000  0.5140980000000  0.5193530000000 1.0
C      1  0.5206120000000  0.5365850000000  0.5141520000000 1.0
C      1  0.5138770000000  0.5231630000000  0.5340410000000 1.0
C      1  0.4682290000000  0.5166240000000  0.4788590000000 1.0
C      1  0.5359260000000  0.4854580000000  0.4796140000000 1.0
C      1  0.4685960000000  0.4847650000000  0.5215890000000 1.0
C      1  0.4770020000000  0.5298950000000  0.4831860000000 1.0
C      1  0.5223630000000  0.4657110000000  0.4847630000000 1.0
C      1  0.4829100000000  0.4628950000000  0.5138840000000 1.0
C      1  0.4890890000000  0.5180270000000  0.4597530000000 1.0
C      1  0.5089640000000  0.4784760000000  0.4594100000000 1.0
C      1  0.4870520000000  0.4792310000000  0.5352460000000 1.0
C      1  0.4299440000000  0.5096540000000  0.5483840000000 1.0
C      1  0.5467260000000  0.4277280000000  0.5086110000000 1.0
C      1  0.5104410000000  0.5490700000000  0.4293420000000 1.0
C      1  0.5694020000000  0.5079790000000  0.4552410000000 1.0
C      1  0.4287540000000  0.4916090000000  0.4521350000000 1.0
C      1  0.5701910000000  0.4910520000000  0.5484550000000 1.0
C      1  0.4526470000000  0.4294590000000  0.4893640000000 1.0
C      1  0.5457220000000  0.5712330000000  0.4908040000000 1.0
C      1  0.4521780000000  0.5712950000000  0.5097050000000 1.0
C      1  0.4895670000000  0.5500490000000  0.5715330000000 1.0
C      1  0.5111750000000  0.4513080000000  0.5701160000000 1.0
C      1  0.4897240000000  0.4513900000000  0.4262890000000 1.0
C      1  0.5240780000000  0.5345130000000  0.4860890000000 1.0
C      1  0.4763620000000  0.5262560000000  0.5254670000000 1.0
C      1  0.5258350000000  0.4771500000000  0.5248740000000 1.0
C      1  0.4762390000000  0.5335430000000  0.5127420000000 1.0
C      1  0.5261480000000  0.4669000000000  0.5147770000000 1.0
C      1  0.4789570000000  0.4646460000000  0.4853030000000 1.0
C      1  0.5232370000000  0.5249440000000  0.4751380000000 1.0
C      1  0.4822250000000  0.4672790000000  0.4716470000000 1.0
C      1  0.5151980000000  0.4767720000000  0.5352130000000 1.0
C      1  0.4610480000000  0.4893550000000  0.4748440000000 1.0
C      1  0.5316690000000  0.5133180000000  0.4750280000000 1.0
C      1  0.4681820000000  0.5140490000000  0.5255530000000 1.0
C      1  0.4876050000000  0.5373790000000  0.4762240000000 1.0
C      1  0.4784160000000  0.4898730000000  0.5438390000000 1.0
C      1  0.5452880000000  0.4771650000000  0.4886090000000 1.0
C      1  0.5110330000000  0.5458030000000  0.5229710000000 1.0
C      1  0.4913100000000  0.4546210000000  0.5228440000000 1.0
C      1  0.5129930000000  0.4588240000000  0.4764550000000 1.0
C      1  0.5210920000000  0.4881920000000  0.4551650000000 1.0
C      1  0.4778350000000  0.5095250000000  0.4541600000000 1.0
C      1  0.5235530000000  0.5140260000000  0.5392950000000 1.0
C      1  0.4630820000000  0.4759470000000  0.5115470000000 1.0
C      1  0.5445600000000  0.5233950000000  0.5105870000000 1.0
C      1  0.4562700000000  0.5231550000000  0.4894500000000 1.0
C      1  0.4255950000000  0.4858860000000  0.5408700000000 1.0
C      1  0.5386300000000  0.4232510000000  0.4849180000000 1.0
C      1  0.4870340000000  0.5410910000000  0.4245040000000 1.0
C      1  0.5746610000000  0.4846600000000  0.4607570000000 1.0
C      1  0.4248960000000  0.5145490000000  0.4612320000000 1.0
C      1  0.5741650000000  0.5144910000000  0.5396790000000 1.0
C      1  0.4595200000000  0.4248290000000  0.5135300000000 1.0
C      1  0.5384760000000  0.5758340000000  0.5142950000000 1.0
C      1  0.4599290000000  0.5757510000000  0.4858560000000 1.0
C      1  0.5135750000000  0.5430240000000  0.5761890000000 1.0
C      1  0.4885120000000  0.4622630000000  0.5743250000000 1.0
C      1  0.5133930000000  0.4610560000000  0.4235790000000 1.0
C      1  0.5560850000000  0.5638800000000  0.4828490000000 1.0
C      1  0.4820540000000  0.5597150000000  0.5631740000000 1.0
C      1  0.5619580000000  0.4836130000000  0.5583420000000 1.0
C      1  0.4424800000000  0.5629110000000  0.5174310000000 1.0
C      1  0.5568500000000  0.4355010000000  0.5165360000000 1.0
C      1  0.4429940000000  0.4380150000000  0.4821350000000 1.0
C      1  0.5180240000000  0.5583230000000  0.4380330000000 1.0
C      1  0.4860010000000  0.4388570000000  0.4313280000000 1.0
C      1  0.5184680000000  0.4412430000000  0.5619770000000 1.0
C      1  0.4364920000000  0.4841610000000  0.4418110000000 1.0
C      1  0.5625600000000  0.5168600000000  0.4459790000000 1.0
C      1  0.4382850000000  0.5172780000000  0.5579910000000 1.0
C      1  0.4792130000000  0.4845160000000  0.5580720000000 1.0
C      1  0.5597240000000  0.4779220000000  0.4844140000000 1.0
C      1  0.4866540000000  0.5619040000000  0.4796570000000 1.0
C      1  0.5213170000000  0.4853540000000  0.4399910000000 1.0
C      1  0.4779560000000  0.5149650000000  0.4396590000000 1.0
C      1  0.5202600000000  0.5147720000000  0.5624360000000 1.0
C      1  0.4397210000000  0.4793480000000  0.5131840000000 1.0
C      1  0.5588720000000  0.5227240000000  0.5155460000000 1.0
C      1  0.4422960000000  0.5227940000000  0.4840740000000 1.0
C      1  0.5144740000000  0.5609280000000  0.5223140000000 1.0
C      1  0.4861540000000  0.4398710000000  0.5223850000000 1.0
C      1  0.5128920000000  0.4349340000000  0.4790570000000 1.0
C      1  0.5518700000000  0.5552450000000  0.5055010000000 1.0
C      1  0.5045070000000  0.5544760000000  0.5548040000000 1.0
C      1  0.5537420000000  0.5061500000000  0.5534330000000 1.0
C      1  0.4479830000000  0.5542960000000  0.4951850000000 1.0
C      1  0.5515400000000  0.4445570000000  0.4947250000000 1.0
C      1  0.4489650000000  0.4464110000000  0.5041000000000 1.0
C      1  0.4954860000000  0.5531850000000  0.4458980000000 1.0
C      1  0.5036700000000  0.4474060000000  0.4438750000000 1.0
C      1  0.4958000000000  0.4469790000000  0.5540290000000 1.0
C      1  0.4449650000000  0.5072140000000  0.4462940000000 1.0
C      1  0.5533020000000  0.4942240000000  0.4484960000000 1.0
C      1  0.4471890000000  0.4951860000000  0.5525200000000 1.0
C      1  0.5230480000000  0.4400360000000  0.4571280000000 1.0
C      1  0.4567080000000  0.5271610000000  0.4387890000000 1.0
C      1  0.4412720000000  0.4574090000000  0.5242830000000 1.0
C      1  0.4743860000000  0.4387620000000  0.5437110000000 1.0
C      1  0.5252000000000  0.5612430000000  0.5441420000000 1.0
C      1  0.4759410000000  0.5602090000000  0.4576210000000 1.0
C      1  0.5423420000000  0.5260920000000  0.5608980000000 1.0
C      1  0.4574530000000  0.4743100000000  0.5597290000000 1.0
C      1  0.5424730000000  0.4740090000000  0.4399640000000 1.0
C      1  0.5590260000000  0.4554330000000  0.4742870000000 1.0
C      1  0.4399310000000  0.5449380000000  0.4739390000000 1.0
C      1  0.5594350000000  0.5442980000000  0.5261780000000 1.0
C      1  0.5057460000000  0.4252440000000  0.5496680000000 1.0
C      1  0.5501910000000  0.5054740000000  0.4276680000000 1.0
C      1  0.4269520000000  0.5488740000000  0.5057770000000 1.0
C      1  0.4935940000000  0.4246890000000  0.4484080000000 1.0
C      1  0.5066270000000  0.5745810000000  0.4515480000000 1.0
C      1  0.4940520000000  0.5756790000000  0.5503120000000 1.0
C      1  0.4528020000000  0.5057720000000  0.5734130000000 1.0
C      1  0.5484640000000  0.4952470000000  0.5750630000000 1.0
C      1  0.4496830000000  0.4963800000000  0.4250970000000 1.0
C      1  0.5734700000000  0.5513280000000  0.4952600000000 1.0
C      1  0.4268960000000  0.4509050000000  0.4936450000000 1.0
C      1  0.5735380000000  0.4489660000000  0.5048390000000 1.0
C      1  0.4633620000000  0.4336860000000  0.4807630000000 1.0
C      1  0.4808170000000  0.4620280000000  0.4317260000000 1.0
C      1  0.4336620000000  0.4827350000000  0.4626400000000 1.0
C      1  0.5360700000000  0.4326890000000  0.5168950000000 1.0
C      1  0.4627990000000  0.5670760000000  0.5184950000000 1.0
C      1  0.5350100000000  0.5653850000000  0.4831050000000 1.0
C      1  0.5200300000000  0.4617480000000  0.5652050000000 1.0
C      1  0.4810460000000  0.5392950000000  0.5670530000000 1.0
C      1  0.5183690000000  0.5378640000000  0.4337020000000 1.0
C      1  0.5658670000000  0.4822250000000  0.5377430000000 1.0
C      1  0.4340040000000  0.5182740000000  0.5375920000000 1.0
C      1  0.5628040000000  0.5136260000000  0.4677110000000 1.0
C      1  0.5362050000000  0.5379850000000  0.5375680000000 1.0
C      1  0.4632800000000  0.5380340000000  0.4626780000000 1.0
C      1  0.5355010000000  0.4622910000000  0.4633140000000 1.0
C      1  0.4641260000000  0.4629770000000  0.5363530000000 1.0
END
