TITL C-73720-2007-16 -31.0170233409579 1000000 -3825.37381903713 0 0 540 (C1) n - 1
REM
REM in /home/chem/mssmkc/work/GAP20/Larger-Clusters/Only-C240/New/BUILD-ONLY
REM
REM
REM
REM
REM
REM ./C.cell (4d22446d3c8a03e2533cb19ef5564aa4)
REM
REM compiler GCC version 8.3.0
REM options -cpp -mtune=generic -march=x86-64 -g -O0
REM seed 998273594 1860797955 1498029221 786232722 -1330234277 1347796246 994286490 -1454286960 134389346 1545120288 -1991019729 819555436 -499578096 -1182169054 1239141249 -1454731393 82816726 -1672296195 -462316448 59571584 -1305836963 1976291155 -2041454873 1580289381 -1990928486 720382569 -2067850695 -309768591 1515866309 -330803190 -2136801799 866249125 -1841413685
REM
CELL 1.54180  100.00000  100.00000  100.00000   90.00000   90.00000   90.00000
LATT -1
SFAC C  
C      1  0.4640990000000  0.5499230000000  0.4362250000000 1.0
C      1  0.5520630000000  0.4316460000000  0.4641500000000 1.0
C      1  0.4329580000000  0.4639240000000  0.5506660000000 1.0
C      1  0.4619020000000  0.4509110000000  0.5669510000000 1.0
C      1  0.5372750000000  0.5520050000000  0.5676320000000 1.0
C      1  0.5391860000000  0.4487570000000  0.4313660000000 1.0
C      1  0.5503470000000  0.5687530000000  0.5388250000000 1.0
C      1  0.4486550000000  0.4337950000000  0.5343570000000 1.0
C      1  0.4497570000000  0.5672170000000  0.4652680000000 1.0
C      1  0.4314670000000  0.5371630000000  0.4507450000000 1.0
C      1  0.5670650000000  0.4625730000000  0.4485600000000 1.0
C      1  0.5675290000000  0.5359940000000  0.5517690000000 1.0
C      1  0.5443090000000  0.5513460000000  0.4246300000000 1.0
C      1  0.4537750000000  0.4327800000000  0.4563210000000 1.0
C      1  0.5681520000000  0.4634130000000  0.5514940000000 1.0
C      1  0.5372350000000  0.4478040000000  0.5664060000000 1.0
C      1  0.4519530000000  0.5658650000000  0.5694380000000 1.0
C      1  0.4657180000000  0.4436800000000  0.4351820000000 1.0
C      1  0.4483870000000  0.5713760000000  0.5429230000000 1.0
C      1  0.5498650000000  0.4298280000000  0.5392300000000 1.0
C      1  0.5645100000000  0.5756850000000  0.4510380000000 1.0
C      1  0.5712850000000  0.5485950000000  0.4282570000000 1.0
C      1  0.4285240000000  0.4635430000000  0.4470070000000 1.0
C      1  0.4288620000000  0.5399160000000  0.5520680000000 1.0
C      1  0.4386830000000  0.4198490000000  0.4821340000000 1.0
C      1  0.4173600000000  0.4815510000000  0.4375610000000 1.0
C      1  0.4816250000000  0.4359440000000  0.4201850000000 1.0
C      1  0.4381770000000  0.5824120000000  0.5166240000000 1.0
C      1  0.5614630000000  0.4171720000000  0.5161050000000 1.0
C      1  0.5599850000000  0.5801020000000  0.4820070000000 1.0
C      1  0.4179250000000  0.5156810000000  0.5617490000000 1.0
C      1  0.5832970000000  0.4847310000000  0.5619850000000 1.0
C      1  0.5811940000000  0.5149060000000  0.4377030000000 1.0
C      1  0.4853560000000  0.5619020000000  0.5822670000000 1.0
C      1  0.5196020000000  0.4387190000000  0.5784330000000 1.0
C      1  0.5154720000000  0.5606210000000  0.4187740000000 1.0
C      1  0.5617580000000  0.4191370000000  0.4811380000000 1.0
C      1  0.5791560000000  0.4796220000000  0.4386170000000 1.0
C      1  0.5170100000000  0.4369420000000  0.4172470000000 1.0
C      1  0.5613940000000  0.5826770000000  0.5162410000000 1.0
C      1  0.4389120000000  0.4211720000000  0.5174550000000 1.0
C      1  0.4386450000000  0.5800390000000  0.4815140000000 1.0
C      1  0.5807210000000  0.5194800000000  0.5615590000000 1.0
C      1  0.4205960000000  0.4805390000000  0.5611080000000 1.0
C      1  0.4157220000000  0.5167360000000  0.4388480000000 1.0
C      1  0.5204200000000  0.5618690000000  0.5801780000000 1.0
C      1  0.4842960000000  0.4392630000000  0.5806080000000 1.0
C      1  0.4802850000000  0.5596070000000  0.4228680000000 1.0
C      1  0.4387940000000  0.5253580000000  0.5915100000000 1.0
C      1  0.5247270000000  0.5914280000000  0.4385060000000 1.0
C      1  0.5908760000000  0.4384980000000  0.5261880000000 1.0
C      1  0.4353170000000  0.4771780000000  0.4111930000000 1.0
C      1  0.5615470000000  0.5238520000000  0.4071300000000 1.0
C      1  0.5619510000000  0.4745370000000  0.5908460000000 1.0
C      1  0.5238380000000  0.4120830000000  0.5612850000000 1.0
C      1  0.4751550000000  0.5923000000000  0.5629910000000 1.0
C      1  0.4785950000000  0.4075720000000  0.4363570000000 1.0
C      1  0.5853310000000  0.5617320000000  0.4773880000000 1.0
C      1  0.4074770000000  0.4390990000000  0.4733110000000 1.0
C      1  0.4079050000000  0.5620730000000  0.5258960000000 1.0
C      1  0.5624630000000  0.5240230000000  0.5870990000000 1.0
C      1  0.4759800000000  0.5858370000000  0.4399640000000 1.0
C      1  0.4132310000000  0.4387830000000  0.5225310000000 1.0
C      1  0.5612950000000  0.4745200000000  0.4124620000000 1.0
C      1  0.4384890000000  0.5258470000000  0.4109550000000 1.0
C      1  0.4390180000000  0.4758050000000  0.5864540000000 1.0
C      1  0.4742150000000  0.4097440000000  0.5599090000000 1.0
C      1  0.5251410000000  0.5878740000000  0.5624420000000 1.0
C      1  0.5274290000000  0.4071010000000  0.4376350000000 1.0
C      1  0.4128900000000  0.5621230000000  0.4768310000000 1.0
C      1  0.5865750000000  0.4379960000000  0.4769220000000 1.0
C      1  0.5904870000000  0.5608370000000  0.5244340000000 1.0
C      1  0.4494370000000  0.5670720000000  0.5554620000000 1.0
C      1  0.5675700000000  0.5608790000000  0.4329980000000 1.0
C      1  0.5481920000000  0.4481380000000  0.5577450000000 1.0
C      1  0.4445390000000  0.4433370000000  0.4521410000000 1.0
C      1  0.5689400000000  0.5734010000000  0.4389850000000 1.0
C      1  0.5500570000000  0.4384310000000  0.5479120000000 1.0
C      1  0.5583420000000  0.4576240000000  0.5561700000000 1.0
C      1  0.4364790000000  0.5461060000000  0.5593970000000 1.0
C      1  0.4358670000000  0.4525820000000  0.4496840000000 1.0
C      1  0.5571780000000  0.5525400000000  0.4269030000000 1.0
C      1  0.4574250000000  0.4408350000000  0.4460340000000 1.0
C      1  0.4448760000000  0.5558430000000  0.5633920000000 1.0
C      1  0.5524560000000  0.5590140000000  0.5469310000000 1.0
C      1  0.4420760000000  0.5416720000000  0.4464870000000 1.0
C      1  0.4537480000000  0.4487810000000  0.5572920000000 1.0
C      1  0.5523240000000  0.4407910000000  0.4537400000000 1.0
C      1  0.4529160000000  0.5588390000000  0.4556000000000 1.0
C      1  0.4485140000000  0.4428640000000  0.5448420000000 1.0
C      1  0.4421960000000  0.4536990000000  0.5500370000000 1.0
C      1  0.5584100000000  0.5464840000000  0.5520060000000 1.0
C      1  0.5582920000000  0.4519380000000  0.4488460000000 1.0
C      1  0.4535550000000  0.5498250000000  0.4455600000000 1.0
C      1  0.5472490000000  0.4467080000000  0.4411130000000 1.0
C      1  0.5475520000000  0.5516280000000  0.5583910000000 1.0
C      1  0.4763510000000  0.4219440000000  0.4402440000000 1.0
C      1  0.4226910000000  0.4401990000000  0.4743460000000 1.0
C      1  0.4384240000000  0.4740350000000  0.4252510000000 1.0
C      1  0.4772380000000  0.5774970000000  0.5618920000000 1.0
C      1  0.5253290000000  0.4265980000000  0.5574330000000 1.0
C      1  0.5235510000000  0.5765650000000  0.4391340000000 1.0
C      1  0.4230280000000  0.5613680000000  0.5245020000000 1.0
C      1  0.5757650000000  0.4386370000000  0.5246950000000 1.0
C      1  0.5706370000000  0.5578010000000  0.4791170000000 1.0
C      1  0.4387770000000  0.5240570000000  0.5766880000000 1.0
C      1  0.5620890000000  0.4767630000000  0.5761530000000 1.0
C      1  0.5608510000000  0.5229790000000  0.4220360000000 1.0
C      1  0.5255180000000  0.4219970000000  0.4376370000000 1.0
C      1  0.5718320000000  0.4412450000000  0.4772970000000 1.0
C      1  0.5578060000000  0.4735000000000  0.4271570000000 1.0
C      1  0.5257950000000  0.5732330000000  0.5586280000000 1.0
C      1  0.4763240000000  0.4246470000000  0.5597300000000 1.0
C      1  0.4757380000000  0.5713510000000  0.4441530000000 1.0
C      1  0.5754790000000  0.5607890000000  0.5226510000000 1.0
C      1  0.4278210000000  0.4425890000000  0.5222420000000 1.0
C      1  0.4276100000000  0.5584550000000  0.4761140000000 1.0
C      1  0.5589900000000  0.5236990000000  0.5724540000000 1.0
C      1  0.4425490000000  0.4753090000000  0.5717230000000 1.0
C      1  0.4377730000000  0.5231330000000  0.4256280000000 1.0
C      1  0.4821440000000  0.3966490000000  0.4836880000000 1.0
C      1  0.3944600000000  0.4860980000000  0.4815210000000 1.0
C      1  0.4841070000000  0.4798760000000  0.3990720000000 1.0
C      1  0.4817620000000  0.6046740000000  0.5157440000000 1.0
C      1  0.5178190000000  0.3954460000000  0.5142640000000 1.0
C      1  0.5185410000000  0.6050640000000  0.4863930000000 1.0
C      1  0.3957020000000  0.5147860000000  0.5186430000000 1.0
C      1  0.6037630000000  0.4852180000000  0.5182070000000 1.0
C      1  0.6031890000000  0.5147760000000  0.4814930000000 1.0
C      1  0.4862520000000  0.5184460000000  0.6040150000000 1.0
C      1  0.5152970000000  0.4815430000000  0.6030350000000 1.0
C      1  0.5135360000000  0.5168130000000  0.3967700000000 1.0
C      1  0.5190190000000  0.3949040000000  0.4847650000000 1.0
C      1  0.6024230000000  0.4849690000000  0.4818350000000 1.0
C      1  0.5139640000000  0.4807510000000  0.3970370000000 1.0
C      1  0.5181070000000  0.6051070000000  0.5160810000000 1.0
C      1  0.4813780000000  0.3970400000000  0.5129960000000 1.0
C      1  0.4820170000000  0.6034290000000  0.4862960000000 1.0
C      1  0.6037200000000  0.5145740000000  0.5181530000000 1.0
C      1  0.3959390000000  0.4852990000000  0.5183410000000 1.0
C      1  0.3953060000000  0.5156190000000  0.4825100000000 1.0
C      1  0.5158800000000  0.5183070000000  0.6035660000000 1.0
C      1  0.4858350000000  0.4824380000000  0.6026250000000 1.0
C      1  0.4843200000000  0.5166810000000  0.3991520000000 1.0
C      1  0.5411500000000  0.5302730000000  0.4153990000000 1.0
C      1  0.5301810000000  0.4162150000000  0.5394060000000 1.0
C      1  0.4160590000000  0.5413570000000  0.5318030000000 1.0
C      1  0.5427160000000  0.4679240000000  0.5802530000000 1.0
C      1  0.4582060000000  0.5332130000000  0.5814910000000 1.0
C      1  0.4617500000000  0.4672190000000  0.4261130000000 1.0
C      1  0.5321220000000  0.5826810000000  0.4588070000000 1.0
C      1  0.4710960000000  0.4172400000000  0.4614260000000 1.0
C      1  0.4686110000000  0.5841680000000  0.5424530000000 1.0
C      1  0.4154140000000  0.4598280000000  0.4677540000000 1.0
C      1  0.5801560000000  0.5403200000000  0.4683200000000 1.0
C      1  0.5822530000000  0.4587530000000  0.5326640000000 1.0
C      1  0.4576400000000  0.5303340000000  0.4226100000000 1.0
C      1  0.4684270000000  0.4196530000000  0.5400540000000 1.0
C      1  0.5806050000000  0.5414520000000  0.5314540000000 1.0
C      1  0.4607650000000  0.4706410000000  0.5809380000000 1.0
C      1  0.5411020000000  0.5307290000000  0.5811140000000 1.0
C      1  0.5396880000000  0.4687340000000  0.4177450000000 1.0
C      1  0.4705260000000  0.5812680000000  0.4620020000000 1.0
C      1  0.5330910000000  0.4169950000000  0.4575200000000 1.0
C      1  0.5307220000000  0.5828690000000  0.5406070000000 1.0
C      1  0.5801150000000  0.4592220000000  0.4701520000000 1.0
C      1  0.4175920000000  0.5405040000000  0.4700240000000 1.0
C      1  0.4189600000000  0.4601100000000  0.5296840000000 1.0
C      1  0.5764540000000  0.4937950000000  0.4171860000000 1.0
C      1  0.4903940000000  0.4157340000000  0.5743340000000 1.0
C      1  0.4173140000000  0.5774430000000  0.4959380000000 1.0
C      1  0.5781380000000  0.5051340000000  0.5830550000000 1.0
C      1  0.4235440000000  0.4948200000000  0.5824160000000 1.0
C      1  0.4225970000000  0.5109420000000  0.4153500000000 1.0
C      1  0.4946390000000  0.5812590000000  0.4241700000000 1.0
C      1  0.5114700000000  0.4131740000000  0.4228850000000 1.0
C      1  0.5059530000000  0.5830900000000  0.5776990000000 1.0
C      1  0.4175500000000  0.4237560000000  0.5031300000000 1.0
C      1  0.5845390000000  0.5757960000000  0.5088270000000 1.0
C      1  0.5827200000000  0.4225200000000  0.4959030000000 1.0
C      1  0.4207040000000  0.4969200000000  0.4171360000000 1.0
C      1  0.5044170000000  0.4177410000000  0.5758990000000 1.0
C      1  0.5821340000000  0.5781900000000  0.4949960000000 1.0
C      1  0.4249560000000  0.5088120000000  0.5847930000000 1.0
C      1  0.5763900000000  0.4911430000000  0.5853040000000 1.0
C      1  0.5751650000000  0.5076770000000  0.4145840000000 1.0
C      1  0.5085940000000  0.5839630000000  0.4247660000000 1.0
C      1  0.4973230000000  0.4150230000000  0.4213420000000 1.0
C      1  0.4919530000000  0.5852940000000  0.5763630000000 1.0
C      1  0.5847130000000  0.4242700000000  0.5098840000000 1.0
C      1  0.4149160000000  0.5760560000000  0.5098520000000 1.0
C      1  0.4152070000000  0.4252750000000  0.4891890000000 1.0
C      1  0.5398120000000  0.5261800000000  0.5999400000000 1.0
C      1  0.5267990000000  0.6011140000000  0.5396670000000 1.0
C      1  0.6012320000000  0.5380330000000  0.5266680000000 1.0
C      1  0.5382050000000  0.4729770000000  0.3996080000000 1.0
C      1  0.4616970000000  0.5262380000000  0.4013760000000 1.0
C      1  0.4619580000000  0.4747760000000  0.5991890000000 1.0
C      1  0.5291210000000  0.3970950000000  0.4614350000000 1.0
C      1  0.4750290000000  0.5998250000000  0.4620730000000 1.0
C      1  0.4721980000000  0.3997810000000  0.5363220000000 1.0
C      1  0.5989770000000  0.4608120000000  0.4745100000000 1.0
C      1  0.3992720000000  0.5396560000000  0.4748110000000 1.0
C      1  0.4000610000000  0.4611950000000  0.5258470000000 1.0
C      1  0.4616110000000  0.5258660000000  0.6027860000000 1.0
C      1  0.4725490000000  0.6016050000000  0.5388500000000 1.0
C      1  0.3979410000000  0.5382450000000  0.5273080000000 1.0
C      1  0.4579730000000  0.4751100000000  0.4019340000000 1.0
C      1  0.5373970000000  0.5250910000000  0.3977160000000 1.0
C      1  0.5382240000000  0.4716610000000  0.5999110000000 1.0
C      1  0.4742770000000  0.4028030000000  0.4598820000000 1.0
C      1  0.5242890000000  0.6041240000000  0.4608340000000 1.0
C      1  0.5249450000000  0.3985540000000  0.5386600000000 1.0
C      1  0.3965180000000  0.4625200000000  0.4726100000000 1.0
C      1  0.6008000000000  0.5410350000000  0.4773910000000 1.0
C      1  0.6009100000000  0.4622540000000  0.5281020000000 1.0
C      1  0.5621020000000  0.4113710000000  0.5030240000000 1.0
C      1  0.4125600000000  0.5023770000000  0.5619250000000 1.0
C      1  0.5018830000000  0.5602000000000  0.4142440000000 1.0
C      1  0.5692220000000  0.5840460000000  0.4925830000000 1.0
C      1  0.4385270000000  0.4139910000000  0.4953140000000 1.0
C      1  0.4380670000000  0.5880470000000  0.5034580000000 1.0
C      1  0.4151110000000  0.4933630000000  0.4301400000000 1.0
C      1  0.5867270000000  0.5016380000000  0.4379230000000 1.0
C      1  0.5890730000000  0.4977910000000  0.5622930000000 1.0
C      1  0.5079580000000  0.4309510000000  0.5809870000000 1.0
C      1  0.4985210000000  0.5620860000000  0.5879550000000 1.0
C      1  0.4934040000000  0.4284290000000  0.4169330000000 1.0
C      1  0.4308100000000  0.4185910000000  0.5060510000000 1.0
C      1  0.5837100000000  0.5083230000000  0.5698730000000 1.0
C      1  0.4914060000000  0.5678190000000  0.4195150000000 1.0
C      1  0.4304810000000  0.5828420000000  0.4928080000000 1.0
C      1  0.5698050000000  0.4166470000000  0.4926080000000 1.0
C      1  0.5619900000000  0.5891450000000  0.5034320000000 1.0
C      1  0.5817360000000  0.4908840000000  0.4304460000000 1.0
C      1  0.4098160000000  0.5038000000000  0.4380370000000 1.0
C      1  0.4179650000000  0.4917770000000  0.5693320000000 1.0
C      1  0.4975430000000  0.4388290000000  0.5860170000000 1.0
C      1  0.5090960000000  0.5698690000000  0.5829480000000 1.0
C      1  0.5036230000000  0.4365680000000  0.4121690000000 1.0
C      1  0.4705840000000  0.5160010000000  0.4032670000000 1.0
C      1  0.5190590000000  0.3984310000000  0.4707340000000 1.0
C      1  0.3998710000000  0.4715990000000  0.5166160000000 1.0
C      1  0.4721710000000  0.4842390000000  0.5986890000000 1.0
C      1  0.5296000000000  0.5167450000000  0.5996220000000 1.0
C      1  0.5278200000000  0.4822890000000  0.4004190000000 1.0
C      1  0.5168720000000  0.6010610000000  0.5297790000000 1.0
C      1  0.4819970000000  0.4009050000000  0.5268580000000 1.0
C      1  0.4840710000000  0.5994480000000  0.4726610000000 1.0
C      1  0.3997920000000  0.5291670000000  0.4839990000000 1.0
C      1  0.5984820000000  0.4712340000000  0.4836420000000 1.0
C      1  0.5995790000000  0.5283370000000  0.5172530000000 1.0
C      1  0.5275390000000  0.5157120000000  0.3995730000000 1.0
C      1  0.4842210000000  0.3998980000000  0.4700930000000 1.0
C      1  0.5997920000000  0.4714470000000  0.5178800000000 1.0
C      1  0.5292150000000  0.4819460000000  0.5993740000000 1.0
C      1  0.4722850000000  0.5177670000000  0.6000940000000 1.0
C      1  0.4703900000000  0.4812610000000  0.4035550000000 1.0
C      1  0.4827650000000  0.6011470000000  0.5295480000000 1.0
C      1  0.5159640000000  0.3993490000000  0.5279400000000 1.0
C      1  0.5175420000000  0.6011160000000  0.4724470000000 1.0
C      1  0.5992800000000  0.5286300000000  0.4834830000000 1.0
C      1  0.3980580000000  0.4722230000000  0.4822360000000 1.0
C      1  0.3995140000000  0.5285390000000  0.5177050000000 1.0
C      1  0.4873820000000  0.5405040000000  0.4085970000000 1.0
C      1  0.5429670000000  0.4042730000000  0.4880900000000 1.0
C      1  0.4056920000000  0.4880350000000  0.5424340000000 1.0
C      1  0.4883370000000  0.4588890000000  0.5927580000000 1.0
C      1  0.5130860000000  0.5426610000000  0.5945350000000 1.0
C      1  0.5122040000000  0.4571200000000  0.4062810000000 1.0
C      1  0.5420040000000  0.5957910000000  0.5134130000000 1.0
C      1  0.4578400000000  0.4070690000000  0.5098430000000 1.0
C      1  0.4576450000000  0.5945700000000  0.4894120000000 1.0
C      1  0.4034770000000  0.5130680000000  0.4583790000000 1.0
C      1  0.5932490000000  0.4875320000000  0.4576900000000 1.0
C      1  0.5950010000000  0.5121170000000  0.5424390000000 1.0
C      1  0.5114090000000  0.5403230000000  0.4072420000000 1.0
C      1  0.4585270000000  0.4074550000000  0.4858620000000 1.0
C      1  0.5953240000000  0.4881630000000  0.5421510000000 1.0
C      1  0.5123320000000  0.4579490000000  0.5927470000000 1.0
C      1  0.4893110000000  0.5420860000000  0.5948150000000 1.0
C      1  0.4884490000000  0.4560000000000  0.4078590000000 1.0
C      1  0.4581400000000  0.5946900000000  0.5132460000000 1.0
C      1  0.5419650000000  0.4043350000000  0.5119330000000 1.0
C      1  0.5425890000000  0.5963930000000  0.4897120000000 1.0
C      1  0.5934330000000  0.5112380000000  0.4577670000000 1.0
C      1  0.4031210000000  0.4892770000000  0.4571520000000 1.0
C      1  0.4052430000000  0.5118650000000  0.5421570000000 1.0
C      1  0.5936720000000  0.5483730000000  0.5300560000000 1.0
C      1  0.5503530000000  0.5291470000000  0.5927970000000 1.0
C      1  0.5298480000000  0.5940210000000  0.5502930000000 1.0
C      1  0.5919160000000  0.4501690000000  0.4716700000000 1.0
C      1  0.4065490000000  0.5501570000000  0.4717600000000 1.0
C      1  0.4074300000000  0.4506350000000  0.5281700000000 1.0
C      1  0.5490370000000  0.4699830000000  0.4063840000000 1.0
C      1  0.4515920000000  0.5302650000000  0.4088750000000 1.0
C      1  0.4513510000000  0.4713770000000  0.5923150000000 1.0
C      1  0.5324680000000  0.4039540000000  0.4505890000000 1.0
C      1  0.4717820000000  0.5923950000000  0.4519330000000 1.0
C      1  0.4689300000000  0.4066520000000  0.5471500000000 1.0
C      1  0.4039090000000  0.5494640000000  0.5309790000000 1.0
C      1  0.4516830000000  0.5302250000000  0.5951040000000 1.0
C      1  0.4696070000000  0.5963000000000  0.5506440000000 1.0
C      1  0.4030840000000  0.4517500000000  0.4688570000000 1.0
C      1  0.5917280000000  0.5494390000000  0.4725590000000 1.0
C      1  0.5945910000000  0.4511080000000  0.5316090000000 1.0
C      1  0.4456610000000  0.4736630000000  0.4017150000000 1.0
C      1  0.5489100000000  0.5288020000000  0.4031020000000 1.0
C      1  0.5493840000000  0.4686760000000  0.5934640000000 1.0
C      1  0.4750770000000  0.3991410000000  0.4470480000000 1.0
C      1  0.5289580000000  0.5958600000000  0.4514780000000 1.0
C      1  0.5283560000000  0.4053490000000  0.5493080000000 1.0
C      1  0.4945290000000  0.4199030000000  0.4580420000000 1.0
C      1  0.4203120000000  0.4601510000000  0.4909100000000 1.0
C      1  0.4580540000000  0.4908270000000  0.4238800000000 1.0
C      1  0.4923700000000  0.5796240000000  0.5418050000000 1.0
C      1  0.5073350000000  0.4216040000000  0.5393870000000 1.0
C      1  0.5086880000000  0.5780600000000  0.4604830000000 1.0
C      1  0.4213530000000  0.5410620000000  0.5084570000000 1.0
C      1  0.5778290000000  0.4590580000000  0.5090530000000 1.0
C      1  0.5768070000000  0.5384670000000  0.4927860000000 1.0
C      1  0.4596240000000  0.5090430000000  0.5776690000000 1.0
C      1  0.5417890000000  0.4921550000000  0.5782360000000 1.0
C      1  0.5406300000000  0.5069580000000  0.4212000000000 1.0
C      1  0.5091370000000  0.4198270000000  0.4574020000000 1.0
C      1  0.5772180000000  0.4593390000000  0.4942540000000 1.0
C      1  0.5401060000000  0.4920070000000  0.4219870000000 1.0
C      1  0.5072710000000  0.5791490000000  0.5412740000000 1.0
C      1  0.4925000000000  0.4221680000000  0.5395630000000 1.0
C      1  0.4940050000000  0.5776540000000  0.4611310000000 1.0
C      1  0.5774020000000  0.5400520000000  0.5073840000000 1.0
C      1  0.4212910000000  0.4605110000000  0.5056570000000 1.0
C      1  0.4218240000000  0.5405830000000  0.4936050000000 1.0
C      1  0.5410690000000  0.5068700000000  0.5780270000000 1.0
C      1  0.4601340000000  0.4940770000000  0.5771880000000 1.0
C      1  0.4571200000000  0.5058010000000  0.4240270000000 1.0
C      1  0.4561430000000  0.4817100000000  0.5722140000000 1.0
C      1  0.4816260000000  0.5723930000000  0.4575820000000 1.0
C      1  0.5719920000000  0.4550490000000  0.4821890000000 1.0
C      1  0.4512620000000  0.5178980000000  0.4282210000000 1.0
C      1  0.5441340000000  0.4796300000000  0.4267910000000 1.0
C      1  0.5451640000000  0.5189310000000  0.5728050000000 1.0
C      1  0.4807300000000  0.4263930000000  0.5457740000000 1.0
C      1  0.5196330000000  0.5739940000000  0.5449670000000 1.0
C      1  0.5210930000000  0.4239090000000  0.4514750000000 1.0
C      1  0.5733750000000  0.5466730000000  0.5191610000000 1.0
C      1  0.4270400000000  0.4564520000000  0.5175200000000 1.0
C      1  0.4267950000000  0.5444230000000  0.4811360000000 1.0
C      1  0.5480760000000  0.4804880000000  0.5738770000000 1.0
C      1  0.5205050000000  0.5749660000000  0.4532410000000 1.0
C      1  0.4236140000000  0.4541430000000  0.4788180000000 1.0
C      1  0.5469210000000  0.5192730000000  0.4235410000000 1.0
C      1  0.4532720000000  0.4777530000000  0.4275550000000 1.0
C      1  0.4528790000000  0.5210740000000  0.5741350000000 1.0
C      1  0.5198170000000  0.4259100000000  0.5436310000000 1.0
C      1  0.4802190000000  0.5762830000000  0.5478700000000 1.0
C      1  0.4816350000000  0.4237640000000  0.4538390000000 1.0
C      1  0.4243030000000  0.5472790000000  0.5207570000000 1.0
C      1  0.5741130000000  0.4530070000000  0.5212970000000 1.0
C      1  0.5720630000000  0.5435300000000  0.4805920000000 1.0
C      1  0.5485650000000  0.5865240000000  0.5225870000000 1.0
C      1  0.5864290000000  0.5220930000000  0.5481170000000 1.0
C      1  0.5230520000000  0.5484510000000  0.5860030000000 1.0
C      1  0.5487080000000  0.4127540000000  0.4780820000000 1.0
C      1  0.4520740000000  0.5860420000000  0.4793140000000 1.0
C      1  0.4521970000000  0.4152380000000  0.5201010000000 1.0
C      1  0.5849110000000  0.4773240000000  0.4521520000000 1.0
C      1  0.4123580000000  0.5226390000000  0.4520420000000 1.0
C      1  0.4144080000000  0.4780160000000  0.5478330000000 1.0
C      1  0.5224620000000  0.4503060000000  0.4140740000000 1.0
C      1  0.4776150000000  0.5461990000000  0.4172700000000 1.0
C      1  0.4784700000000  0.4523670000000  0.5843070000000 1.0
C      1  0.4511890000000  0.5862810000000  0.5230400000000 1.0
C      1  0.4135780000000  0.5217710000000  0.5487750000000 1.0
C      1  0.4792050000000  0.5484480000000  0.5858870000000 1.0
C      1  0.4517690000000  0.4162690000000  0.4760600000000 1.0
C      1  0.5473870000000  0.5871590000000  0.4793710000000 1.0
C      1  0.5484230000000  0.4129620000000  0.5218250000000 1.0
C      1  0.4114130000000  0.4792110000000  0.4509850000000 1.0
C      1  0.5846890000000  0.5213740000000  0.4510480000000 1.0
C      1  0.5867430000000  0.4785770000000  0.5489000000000 1.0
C      1  0.4788440000000  0.4498220000000  0.4163720000000 1.0
C      1  0.5217550000000  0.5476640000000  0.4145080000000 1.0
C      1  0.5223920000000  0.4520060000000  0.5843490000000 1.0
C      1  0.4730420000000  0.5610130000000  0.4352150000000 1.0
C      1  0.5625750000000  0.4314800000000  0.4738970000000 1.0
C      1  0.4327530000000  0.4728590000000  0.5619920000000 1.0
C      1  0.4819450000000  0.4282170000000  0.5722930000000 1.0
C      1  0.5282460000000  0.5632270000000  0.5681280000000 1.0
C      1  0.5197290000000  0.4256480000000  0.4251310000000 1.0
C      1  0.5720280000000  0.5735030000000  0.5175860000000 1.0
C      1  0.4377100000000  0.4332620000000  0.5250810000000 1.0
C      1  0.4376420000000  0.5678710000000  0.4738500000000 1.0
C      1  0.4245880000000  0.5187500000000  0.4281550000000 1.0
C      1  0.5674170000000  0.4714210000000  0.4371910000000 1.0
C      1  0.5684040000000  0.5267770000000  0.5627320000000 1.0
C      1  0.5176360000000  0.5720110000000  0.4269380000000 1.0
C      1  0.4272900000000  0.4280110000000  0.4802730000000 1.0
C      1  0.5746200000000  0.4826500000000  0.5728520000000 1.0
C      1  0.5278270000000  0.4368610000000  0.5666970000000 1.0
C      1  0.4834170000000  0.5730890000000  0.5739820000000 1.0
C      1  0.4740420000000  0.4328270000000  0.4317900000000 1.0
C      1  0.4270860000000  0.5738260000000  0.5185700000000 1.0
C      1  0.5721480000000  0.4262050000000  0.5184220000000 1.0
C      1  0.5610320000000  0.5666040000000  0.4801730000000 1.0
C      1  0.5729470000000  0.5166040000000  0.4264500000000 1.0
C      1  0.4286310000000  0.4725450000000  0.4354670000000 1.0
C      1  0.4265190000000  0.5178220000000  0.5727350000000 1.0
C      1  0.5899960000000  0.4678960000000  0.5082180000000 1.0
C      1  0.4690290000000  0.5084550000000  0.5895750000000 1.0
C      1  0.5084240000000  0.5902840000000  0.4697300000000 1.0
C      1  0.5890250000000  0.5300240000000  0.4935760000000 1.0
C      1  0.4079980000000  0.4687720000000  0.4918800000000 1.0
C      1  0.4093790000000  0.5319100000000  0.5079640000000 1.0
C      1  0.4676380000000  0.4917660000000  0.4129600000000 1.0
C      1  0.5310570000000  0.5062030000000  0.4096370000000 1.0
C      1  0.5330000000000  0.4923040000000  0.5903990000000 1.0
C      1  0.5062540000000  0.4094520000000  0.5306130000000 1.0
C      1  0.4928240000000  0.5917170000000  0.5329730000000 1.0
C      1  0.4952100000000  0.4080500000000  0.4670110000000 1.0
C      1  0.4087050000000  0.4687500000000  0.5057690000000 1.0
C      1  0.5326090000000  0.5063010000000  0.5904080000000 1.0
C      1  0.4945490000000  0.5900320000000  0.4696990000000 1.0
C      1  0.4095000000000  0.5318740000000  0.4941220000000 1.0
C      1  0.5895040000000  0.4680780000000  0.4943250000000 1.0
C      1  0.5895980000000  0.5311910000000  0.5074000000000 1.0
C      1  0.5309550000000  0.4923560000000  0.4100330000000 1.0
C      1  0.4668900000000  0.5058100000000  0.4125650000000 1.0
C      1  0.4691150000000  0.4945330000000  0.5892270000000 1.0
C      1  0.4923660000000  0.4100650000000  0.5304870000000 1.0
C      1  0.5067600000000  0.5915760000000  0.5327890000000 1.0
C      1  0.5090960000000  0.4077100000000  0.4667190000000 1.0
C      1  0.4930720000000  0.4709200000000  0.5988080000000 1.0
C      1  0.4704520000000  0.6002020000000  0.4937290000000 1.0
C      1  0.5990080000000  0.4922650000000  0.4703720000000 1.0
C      1  0.4918650000000  0.5280240000000  0.4022900000000 1.0
C      1  0.5068970000000  0.4693070000000  0.4010770000000 1.0
C      1  0.5085920000000  0.5298490000000  0.6003010000000 1.0
C      1  0.4703340000000  0.4009250000000  0.5053490000000 1.0
C      1  0.5296420000000  0.6016340000000  0.5087890000000 1.0
C      1  0.5301590000000  0.3983940000000  0.4924950000000 1.0
C      1  0.6006450000000  0.5073360000000  0.5297020000000 1.0
C      1  0.3995710000000  0.4925720000000  0.5298300000000 1.0
C      1  0.3981000000000  0.5083470000000  0.4707230000000 1.0
C      1  0.5077330000000  0.4705060000000  0.5990350000000 1.0
C      1  0.5298930000000  0.6018410000000  0.4940610000000 1.0
C      1  0.3977430000000  0.4936710000000  0.4701910000000 1.0
C      1  0.5064730000000  0.5281000000000  0.4014440000000 1.0
C      1  0.4922230000000  0.4688490000000  0.4020270000000 1.0
C      1  0.4938720000000  0.5298040000000  0.6004840000000 1.0
C      1  0.5296570000000  0.3986770000000  0.5071660000000 1.0
C      1  0.4704520000000  0.6005080000000  0.5084330000000 1.0
C      1  0.4706260000000  0.4010850000000  0.4907310000000 1.0
C      1  0.3994020000000  0.5072430000000  0.5299190000000 1.0
C      1  0.6007110000000  0.4927170000000  0.5297230000000 1.0
C      1  0.5991210000000  0.5070530000000  0.4702560000000 1.0
C      1  0.4582940000000  0.4220600000000  0.4646550000000 1.0
C      1  0.4183260000000  0.4678100000000  0.4563830000000 1.0
C      1  0.4678240000000  0.4552990000000  0.4258340000000 1.0
C      1  0.4558230000000  0.5805310000000  0.5354580000000 1.0
C      1  0.5429820000000  0.4191800000000  0.5331830000000 1.0
C      1  0.5393930000000  0.5823500000000  0.4694790000000 1.0
C      1  0.4194280000000  0.5338140000000  0.5437850000000 1.0
C      1  0.5792770000000  0.4673460000000  0.5439410000000 1.0
C      1  0.5802150000000  0.5324400000000  0.4576910000000 1.0
C      1  0.4682710000000  0.5419370000000  0.5811910000000 1.0
C      1  0.5341250000000  0.4571600000000  0.5769000000000 1.0
C      1  0.5349350000000  0.5433930000000  0.4185370000000 1.0
C      1  0.5433850000000  0.4203880000000  0.4665150000000 1.0
C      1  0.5773370000000  0.4661560000000  0.4579780000000 1.0
C      1  0.5337310000000  0.4557720000000  0.4209190000000 1.0
C      1  0.5433160000000  0.5795150000000  0.5338880000000 1.0
C      1  0.4577080000000  0.4229550000000  0.5315050000000 1.0
C      1  0.4583620000000  0.5784520000000  0.4688370000000 1.0
C      1  0.5781760000000  0.5331550000000  0.5425180000000 1.0
C      1  0.4220400000000  0.4670420000000  0.5417630000000 1.0
C      1  0.4199940000000  0.5333290000000  0.4576980000000 1.0
C      1  0.5341130000000  0.5427660000000  0.5782590000000 1.0
C      1  0.4671490000000  0.4578780000000  0.5775490000000 1.0
C      1  0.4665500000000  0.5407190000000  0.4255790000000 1.0
C      1  0.5074470000000  0.3917330000000  0.4918840000000 1.0
C      1  0.3917030000000  0.4929980000000  0.5074840000000 1.0
C      1  0.4913690000000  0.5056080000000  0.3948750000000 1.0
C      1  0.5072650000000  0.6088950000000  0.5082760000000 1.0
C      1  0.4924630000000  0.3926290000000  0.5059000000000 1.0
C      1  0.4928060000000  0.6079430000000  0.4938140000000 1.0
C      1  0.3913370000000  0.5077780000000  0.4932250000000 1.0
C      1  0.6067630000000  0.4927050000000  0.4925090000000 1.0
C      1  0.6072570000000  0.5070940000000  0.5070160000000 1.0
C      1  0.4936540000000  0.4929240000000  0.6070720000000 1.0
C      1  0.5082110000000  0.5073100000000  0.6073370000000 1.0
C      1  0.5057770000000  0.4913420000000  0.3935140000000 1.0
C      1  0.4928240000000  0.3922740000000  0.4915630000000 1.0
C      1  0.6071470000000  0.4926450000000  0.5070330000000 1.0
C      1  0.5057280000000  0.5058600000000  0.3934860000000 1.0
C      1  0.4926870000000  0.6085390000000  0.5081780000000 1.0
C      1  0.5070370000000  0.3919340000000  0.5063020000000 1.0
C      1  0.5073280000000  0.6084810000000  0.4938510000000 1.0
C      1  0.6070330000000  0.5070830000000  0.4924430000000 1.0
C      1  0.3912370000000  0.4933710000000  0.4929140000000 1.0
C      1  0.3916320000000  0.5073940000000  0.5077410000000 1.0
C      1  0.5080720000000  0.4927500000000  0.6069520000000 1.0
C      1  0.4937850000000  0.5074370000000  0.6075310000000 1.0
C      1  0.4914340000000  0.4911020000000  0.3948550000000 1.0
C      1  0.5894290000000  0.5718760000000  0.4849570000000 1.0
C      1  0.5697020000000  0.4846960000000  0.5956620000000 1.0
C      1  0.4853830000000  0.5962740000000  0.5709540000000 1.0
C      1  0.5954460000000  0.4305540000000  0.5161010000000 1.0
C      1  0.4037580000000  0.5703630000000  0.5159270000000 1.0
C      1  0.4038630000000  0.4306200000000  0.4832670000000 1.0
C      1  0.5697410000000  0.5137530000000  0.4033360000000 1.0
C      1  0.4273770000000  0.4878290000000  0.4094060000000 1.0
C      1  0.4309750000000  0.5149800000000  0.5956600000000 1.0
C      1  0.4886530000000  0.4064590000000  0.4274430000000 1.0
C      1  0.5147510000000  0.5952910000000  0.4299600000000 1.0
C      1  0.5135240000000  0.4097920000000  0.5692570000000 1.0
C      1  0.4097520000000  0.5704110000000  0.4867260000000 1.0
C      1  0.4303400000000  0.4852640000000  0.5898350000000 1.0
C      1  0.5152100000000  0.5907130000000  0.5708020000000 1.0
C      1  0.4100120000000  0.4305530000000  0.5125900000000 1.0
C      1  0.5951430000000  0.5688510000000  0.5144670000000 1.0
C      1  0.5901640000000  0.4294480000000  0.4864370000000 1.0
C      1  0.4298190000000  0.5170840000000  0.4052080000000 1.0
C      1  0.5694800000000  0.4845780000000  0.4096280000000 1.0
C      1  0.5711020000000  0.5145050000000  0.5904340000000 1.0
C      1  0.5177670000000  0.4024440000000  0.4292040000000 1.0
C      1  0.4855830000000  0.5888240000000  0.4313390000000 1.0
C      1  0.4840520000000  0.4050350000000  0.5681040000000 1.0
C      1  0.4994850000000  0.5477750000000  0.4087330000000 1.0
C      1  0.5001030000000  0.4510150000000  0.5919980000000 1.0
C      1  0.4503680000000  0.5941000000000  0.5014120000000 1.0
C      1  0.5500090000000  0.4049920000000  0.5003400000000 1.0
C      1  0.4062330000000  0.5000270000000  0.5498160000000 1.0
C      1  0.4036080000000  0.5014280000000  0.4501900000000 1.0
C      1  0.5927350000000  0.4994580000000  0.4501840000000 1.0
C      1  0.5949090000000  0.5000910000000  0.5498970000000 1.0
C      1  0.5009770000000  0.5499050000000  0.5940490000000 1.0
C      1  0.5006770000000  0.4490530000000  0.4071200000000 1.0
C      1  0.5499110000000  0.5957040000000  0.5016190000000 1.0
C      1  0.4507770000000  0.4080400000000  0.4976280000000 1.0
END
