TITL C-731043-5360-51 133.022826544746 1000000 -3881.858502283 0 0 540 (C1) n - 1
REM
REM in /scratch/bkarasulu/Only-C240/Try5-OnlyC540
REM
REM
REM
REM
REM
REM ./C.cell (44946988efc617adc4c7d3233e6f571a)
REM
REM compiler GCC version 9.2.1 20190827 (Red Hat 9.2.1-1)
REM options -cpp -mtune=generic -march=x86-64 -g -O0 -fpre-include=/usr/include/finclude/math-vector-fortran.h
REM seed 1331858820 -1406373281 8241057 1593575440 1825395207 -182288280 -1516336214 847676592 1752237206 -1066602964 -662866100 -2075223955 -73195942 2001124106 243023347 -381772332 804212777 -1781645948 1922472596 -1194561986 1600640035 -1947656957 -292965367 -420339388 -1762178350 581557882 1789887538 -1129268659 -21102264 -108066479 -1594531779 -248206665 -618517051
REM
CELL 1.54180  100.00000  100.00000  100.00000   90.00000   90.00000   90.00000
LATT -1
SFAC C  
C      1  0.5876850000000  0.5500710000000  0.4678640000000 1.0
C      1  0.4706600000000  0.5859620000000  0.5510120000000 1.0
C      1  0.5509190000000  0.4689540000000  0.5880750000000 1.0
C      1  0.4130850000000  0.5501610000000  0.5309140000000 1.0
C      1  0.5837610000000  0.4519810000000  0.5280740000000 1.0
C      1  0.4131170000000  0.4523460000000  0.4691730000000 1.0
C      1  0.5291740000000  0.5853440000000  0.4495490000000 1.0
C      1  0.4679470000000  0.4138960000000  0.4519710000000 1.0
C      1  0.5297840000000  0.4132990000000  0.5496630000000 1.0
C      1  0.4510950000000  0.4690750000000  0.4138550000000 1.0
C      1  0.5494620000000  0.5298170000000  0.4121250000000 1.0
C      1  0.4498300000000  0.5287730000000  0.5864610000000 1.0
C      1  0.4697010000000  0.5473450000000  0.5861750000000 1.0
C      1  0.5484580000000  0.5851250000000  0.4689290000000 1.0
C      1  0.5840730000000  0.4710740000000  0.5471090000000 1.0
C      1  0.5309460000000  0.5501130000000  0.4104400000000 1.0
C      1  0.5304830000000  0.4504570000000  0.5868580000000 1.0
C      1  0.4695750000000  0.4489860000000  0.4135300000000 1.0
C      1  0.4516800000000  0.5857360000000  0.5311910000000 1.0
C      1  0.4480620000000  0.4137800000000  0.4706710000000 1.0
C      1  0.5498390000000  0.4117060000000  0.5308070000000 1.0
C      1  0.4128860000000  0.4709400000000  0.4491820000000 1.0
C      1  0.4109160000000  0.5314990000000  0.5510840000000 1.0
C      1  0.5877640000000  0.5303660000000  0.4481880000000 1.0
C      1  0.5371810000000  0.4062890000000  0.5272630000000 1.0
C      1  0.5271170000000  0.5374560000000  0.4052550000000 1.0
C      1  0.4057820000000  0.5278780000000  0.5383440000000 1.0
C      1  0.4605820000000  0.4087950000000  0.4748310000000 1.0
C      1  0.5365270000000  0.5923390000000  0.4712110000000 1.0
C      1  0.4640840000000  0.5921760000000  0.5289990000000 1.0
C      1  0.4719270000000  0.5353920000000  0.5931600000000 1.0
C      1  0.5285260000000  0.4624640000000  0.5940260000000 1.0
C      1  0.4738180000000  0.4614700000000  0.4085250000000 1.0
C      1  0.5958890000000  0.5286520000000  0.4595680000000 1.0
C      1  0.4080470000000  0.4751810000000  0.4617320000000 1.0
C      1  0.5900340000000  0.4744480000000  0.5346730000000 1.0
C      1  0.5274040000000  0.4062950000000  0.5376300000000 1.0
C      1  0.4060000000000  0.5381830000000  0.5285070000000 1.0
C      1  0.5373520000000  0.5275550000000  0.4052120000000 1.0
C      1  0.4703530000000  0.4078540000000  0.4644270000000 1.0
C      1  0.4746490000000  0.5911610000000  0.5385460000000 1.0
C      1  0.5260660000000  0.5921770000000  0.4615180000000 1.0
C      1  0.5958800000000  0.5387390000000  0.4696080000000 1.0
C      1  0.5898840000000  0.4642970000000  0.5245620000000 1.0
C      1  0.4071470000000  0.4648380000000  0.4715640000000 1.0
C      1  0.4618210000000  0.5252640000000  0.5931100000000 1.0
C      1  0.4635220000000  0.4713580000000  0.4077090000000 1.0
C      1  0.5384530000000  0.4726840000000  0.5937970000000 1.0
C      1  0.4821290000000  0.3887030000000  0.5088260000000 1.0
C      1  0.5078180000000  0.4826220000000  0.3880610000000 1.0
C      1  0.3882940000000  0.5093560000000  0.4832830000000 1.0
C      1  0.5134660000000  0.3869150000000  0.4933400000000 1.0
C      1  0.4850170000000  0.6146870000000  0.4960830000000 1.0
C      1  0.5164990000000  0.6140680000000  0.5054440000000 1.0
C      1  0.4951370000000  0.4835240000000  0.6161030000000 1.0
C      1  0.5047870000000  0.5152370000000  0.6161070000000 1.0
C      1  0.4926720000000  0.5141650000000  0.3864500000000 1.0
C      1  0.6122620000000  0.5077420000000  0.5130220000000 1.0
C      1  0.3864620000000  0.4939610000000  0.5146850000000 1.0
C      1  0.6162990000000  0.4947670000000  0.4816250000000 1.0
C      1  0.5024500000000  0.3847610000000  0.4852430000000 1.0
C      1  0.3842780000000  0.4858400000000  0.5037000000000 1.0
C      1  0.4844200000000  0.5032510000000  0.3844080000000 1.0
C      1  0.4929070000000  0.3855800000000  0.5169270000000 1.0
C      1  0.4928730000000  0.6124560000000  0.4849560000000 1.0
C      1  0.5085400000000  0.6110930000000  0.5163820000000 1.0
C      1  0.6120630000000  0.4854030000000  0.4908780000000 1.0
C      1  0.6164480000000  0.5168960000000  0.5035390000000 1.0
C      1  0.3852660000000  0.5175160000000  0.4940390000000 1.0
C      1  0.5156450000000  0.5069850000000  0.6136680000000 1.0
C      1  0.5160050000000  0.4932960000000  0.3848190000000 1.0
C      1  0.4842490000000  0.4916600000000  0.6136750000000 1.0
C      1  0.4187940000000  0.4862100000000  0.5451010000000 1.0
C      1  0.5438740000000  0.4191610000000  0.4854760000000 1.0
C      1  0.4857280000000  0.5445910000000  0.4189540000000 1.0
C      1  0.5743940000000  0.4792900000000  0.4627340000000 1.0
C      1  0.4245970000000  0.5159620000000  0.4557600000000 1.0
C      1  0.5754300000000  0.5191640000000  0.5436790000000 1.0
C      1  0.4548370000000  0.4250530000000  0.5158090000000 1.0
C      1  0.5365840000000  0.5722800000000  0.5206510000000 1.0
C      1  0.4647250000000  0.5746830000000  0.4787550000000 1.0
C      1  0.5238950000000  0.5357450000000  0.5736540000000 1.0
C      1  0.4782610000000  0.4642210000000  0.5753150000000 1.0
C      1  0.5148860000000  0.4553210000000  0.4243910000000 1.0
C      1  0.5361540000000  0.4783500000000  0.4266170000000 1.0
C      1  0.4780650000000  0.4275580000000  0.5367890000000 1.0
C      1  0.4274270000000  0.5368690000000  0.4790100000000 1.0
C      1  0.4539330000000  0.4808200000000  0.5769990000000 1.0
C      1  0.4639630000000  0.5234670000000  0.4260810000000 1.0
C      1  0.5452790000000  0.5141860000000  0.5804220000000 1.0
C      1  0.5225650000000  0.4260430000000  0.4638680000000 1.0
C      1  0.5157770000000  0.5750050000000  0.5440050000000 1.0
C      1  0.4811760000000  0.5764000000000  0.4543540000000 1.0
C      1  0.5747650000000  0.5360440000000  0.5193730000000 1.0
C      1  0.5747650000000  0.4552210000000  0.4799530000000 1.0
C      1  0.4256190000000  0.4645900000000  0.5237300000000 1.0
C      1  0.4709580000000  0.5047860000000  0.3895260000000 1.0
C      1  0.3891900000000  0.4722870000000  0.5051070000000 1.0
C      1  0.5038050000000  0.3896560000000  0.4716790000000 1.0
C      1  0.5274880000000  0.5109870000000  0.6061470000000 1.0
C      1  0.4722610000000  0.4876560000000  0.6062260000000 1.0
C      1  0.5294810000000  0.4922210000000  0.3900040000000 1.0
C      1  0.6043990000000  0.4734460000000  0.4871590000000 1.0
C      1  0.3907760000000  0.5308730000000  0.4930820000000 1.0
C      1  0.6107880000000  0.5300910000000  0.5048170000000 1.0
C      1  0.4919920000000  0.3909320000000  0.5303490000000 1.0
C      1  0.5126510000000  0.6027640000000  0.5277150000000 1.0
C      1  0.4886440000000  0.6053100000000  0.4728670000000 1.0
C      1  0.3967430000000  0.5133200000000  0.4719830000000 1.0
C      1  0.5118430000000  0.4713220000000  0.3964820000000 1.0
C      1  0.4708620000000  0.3971490000000  0.5128820000000 1.0
C      1  0.6047670000000  0.5116120000000  0.5250390000000 1.0
C      1  0.6105930000000  0.4934110000000  0.4684570000000 1.0
C      1  0.3935030000000  0.4897900000000  0.5267770000000 1.0
C      1  0.4938670000000  0.4701510000000  0.6107180000000 1.0
C      1  0.4887360000000  0.5262920000000  0.3935650000000 1.0
C      1  0.5059530000000  0.5286140000000  0.6107000000000 1.0
C      1  0.5255510000000  0.3939380000000  0.4891490000000 1.0
C      1  0.5299000000000  0.6086640000000  0.5063180000000 1.0
C      1  0.4715040000000  0.6096490000000  0.4947960000000 1.0
C      1  0.5365460000000  0.4228940000000  0.5579480000000 1.0
C      1  0.5578850000000  0.5364810000000  0.4216820000000 1.0
C      1  0.4227430000000  0.5583340000000  0.5377260000000 1.0
C      1  0.4608900000000  0.4221130000000  0.4426100000000 1.0
C      1  0.5366580000000  0.5763840000000  0.4410700000000 1.0
C      1  0.4627930000000  0.5769620000000  0.5592460000000 1.0
C      1  0.4413990000000  0.5365540000000  0.5776740000000 1.0
C      1  0.5585830000000  0.4621120000000  0.5777920000000 1.0
C      1  0.4417120000000  0.4620790000000  0.4220960000000 1.0
C      1  0.5771300000000  0.5575750000000  0.4616500000000 1.0
C      1  0.4212170000000  0.4429110000000  0.4620850000000 1.0
C      1  0.5753880000000  0.4430650000000  0.5357800000000 1.0
C      1  0.5578440000000  0.4218140000000  0.5375200000000 1.0
C      1  0.4207840000000  0.5382920000000  0.5593350000000 1.0
C      1  0.5379280000000  0.5581670000000  0.4203430000000 1.0
C      1  0.4396380000000  0.4223830000000  0.4625450000000 1.0
C      1  0.4427350000000  0.5766400000000  0.5377620000000 1.0
C      1  0.5569260000000  0.5756480000000  0.4622130000000 1.0
C      1  0.5774080000000  0.5366670000000  0.4404960000000 1.0
C      1  0.5757390000000  0.4635290000000  0.5562000000000 1.0
C      1  0.4213670000000  0.4627320000000  0.4407170000000 1.0
C      1  0.4626200000000  0.5563590000000  0.5775780000000 1.0
C      1  0.4614240000000  0.4406180000000  0.4221580000000 1.0
C      1  0.5368750000000  0.4420870000000  0.5770940000000 1.0
C      1  0.4008650000000  0.5266650000000  0.4709010000000 1.0
C      1  0.4698160000000  0.4011300000000  0.5262710000000 1.0
C      1  0.5252670000000  0.4701170000000  0.4003200000000 1.0
C      1  0.6008590000000  0.5250180000000  0.5267800000000 1.0
C      1  0.3971380000000  0.4762550000000  0.5279820000000 1.0
C      1  0.6026670000000  0.4830600000000  0.4650050000000 1.0
C      1  0.5266870000000  0.3975330000000  0.4755970000000 1.0
C      1  0.4672160000000  0.6027890000000  0.4838880000000 1.0
C      1  0.5341790000000  0.6011830000000  0.5168290000000 1.0
C      1  0.4830820000000  0.4661510000000  0.6035240000000 1.0
C      1  0.5165550000000  0.5328500000000  0.6033490000000 1.0
C      1  0.4752730000000  0.5276270000000  0.3974140000000 1.0
C      1  0.4667460000000  0.5156600000000  0.3965200000000 1.0
C      1  0.5146280000000  0.3965680000000  0.4672250000000 1.0
C      1  0.3961280000000  0.4678650000000  0.5159310000000 1.0
C      1  0.5285680000000  0.5244480000000  0.6022680000000 1.0
C      1  0.5336310000000  0.4817790000000  0.3976600000000 1.0
C      1  0.4710780000000  0.4743690000000  0.6018910000000 1.0
C      1  0.4815900000000  0.3986200000000  0.5345240000000 1.0
C      1  0.4752760000000  0.6011660000000  0.4717600000000 1.0
C      1  0.5260430000000  0.5987830000000  0.5287130000000 1.0
C      1  0.6004070000000  0.4716170000000  0.4737860000000 1.0
C      1  0.6029770000000  0.5336640000000  0.5152120000000 1.0
C      1  0.3985080000000  0.5349530000000  0.4826790000000 1.0
C      1  0.5645220000000  0.4761960000000  0.4246850000000 1.0
C      1  0.4261880000000  0.5652280000000  0.4771270000000 1.0
C      1  0.4762000000000  0.4259260000000  0.5651530000000 1.0
C      1  0.4291980000000  0.4740370000000  0.5816650000000 1.0
C      1  0.5706570000000  0.5227770000000  0.5778990000000 1.0
C      1  0.4366250000000  0.5258250000000  0.4212630000000 1.0
C      1  0.5758430000000  0.5642770000000  0.5220160000000 1.0
C      1  0.4204570000000  0.4372910000000  0.5257920000000 1.0
C      1  0.5799520000000  0.4299700000000  0.4738430000000 1.0
C      1  0.5245560000000  0.4208330000000  0.4366130000000 1.0
C      1  0.4741470000000  0.5812350000000  0.4296940000000 1.0
C      1  0.5257580000000  0.5718830000000  0.5675320000000 1.0
C      1  0.4208750000000  0.4774500000000  0.5706190000000 1.0
C      1  0.4772860000000  0.5701950000000  0.4212520000000 1.0
C      1  0.5692690000000  0.4210710000000  0.4767510000000 1.0
C      1  0.5753660000000  0.4763020000000  0.4345100000000 1.0
C      1  0.5811600000000  0.5255280000000  0.5687470000000 1.0
C      1  0.4277690000000  0.5257660000000  0.4321620000000 1.0
C      1  0.5260020000000  0.5630180000000  0.5784280000000 1.0
C      1  0.5244710000000  0.4316350000000  0.4276320000000 1.0
C      1  0.4762840000000  0.4358400000000  0.5758940000000 1.0
C      1  0.4312580000000  0.4283130000000  0.5256440000000 1.0
C      1  0.4363070000000  0.5757810000000  0.4771030000000 1.0
C      1  0.5650060000000  0.5741000000000  0.5222140000000 1.0
C      1  0.4810830000000  0.4407300000000  0.4162110000000 1.0
C      1  0.4156550000000  0.4824580000000  0.4409670000000 1.0
C      1  0.4399180000000  0.4165540000000  0.4822370000000 1.0
C      1  0.5181830000000  0.4428360000000  0.5857850000000 1.0
C      1  0.4818620000000  0.5552520000000  0.5850750000000 1.0
C      1  0.5193600000000  0.5585750000000  0.4117920000000 1.0
C      1  0.5843960000000  0.4821840000000  0.5563130000000 1.0
C      1  0.4120580000000  0.5198070000000  0.5594330000000 1.0
C      1  0.5863200000000  0.5180130000000  0.4407790000000 1.0
C      1  0.5581150000000  0.4130420000000  0.5190830000000 1.0
C      1  0.4438110000000  0.5850990000000  0.5190040000000 1.0
C      1  0.5565550000000  0.5842860000000  0.4809010000000 1.0
C      1  0.4140880000000  0.4445240000000  0.4814430000000 1.0
C      1  0.4433620000000  0.4813970000000  0.4148650000000 1.0
C      1  0.4801800000000  0.4147860000000  0.4440820000000 1.0
C      1  0.5837660000000  0.4427290000000  0.5169990000000 1.0
C      1  0.5862170000000  0.5574810000000  0.4802160000000 1.0
C      1  0.4147660000000  0.5578310000000  0.5187090000000 1.0
C      1  0.5593380000000  0.4805530000000  0.5865370000000 1.0
C      1  0.5571610000000  0.5175980000000  0.4134310000000 1.0
C      1  0.4406110000000  0.5176760000000  0.5861020000000 1.0
C      1  0.5176440000000  0.4146910000000  0.5574820000000 1.0
C      1  0.5178960000000  0.5851170000000  0.4405620000000 1.0
C      1  0.4823130000000  0.5832910000000  0.5590600000000 1.0
C      1  0.5555700000000  0.5044490000000  0.5835490000000 1.0
C      1  0.5900750000000  0.5528880000000  0.5044270000000 1.0
C      1  0.5057430000000  0.5765960000000  0.5547140000000 1.0
C      1  0.4478350000000  0.5059520000000  0.4115450000000 1.0
C      1  0.5525080000000  0.4932190000000  0.4104960000000 1.0
C      1  0.4401750000000  0.4941780000000  0.5929540000000 1.0
C      1  0.4119160000000  0.5533970000000  0.4942290000000 1.0
C      1  0.5903770000000  0.4420860000000  0.4936840000000 1.0
C      1  0.4108880000000  0.4488410000000  0.5060390000000 1.0
C      1  0.4945010000000  0.5922720000000  0.4405440000000 1.0
C      1  0.5047670000000  0.4113990000000  0.4482330000000 1.0
C      1  0.4932060000000  0.4117410000000  0.5531100000000 1.0
C      1  0.5912450000000  0.5054440000000  0.5566920000000 1.0
C      1  0.5063900000000  0.5515310000000  0.5884250000000 1.0
C      1  0.5526820000000  0.5880340000000  0.5052220000000 1.0
C      1  0.4228670000000  0.5058600000000  0.4451240000000 1.0
C      1  0.4155550000000  0.4959360000000  0.5553870000000 1.0
C      1  0.5899010000000  0.4938030000000  0.4456640000000 1.0
C      1  0.4955120000000  0.5547830000000  0.4156040000000 1.0
C      1  0.4939380000000  0.4474010000000  0.5898690000000 1.0
C      1  0.5046380000000  0.4447790000000  0.4229610000000 1.0
C      1  0.4482830000000  0.5893580000000  0.4947370000000 1.0
C      1  0.4441890000000  0.4235180000000  0.5056890000000 1.0
C      1  0.5541460000000  0.4159760000000  0.4952150000000 1.0
C      1  0.4841610000000  0.5346840000000  0.4280960000000 1.0
C      1  0.4279410000000  0.4846100000000  0.5352020000000 1.0
C      1  0.5339970000000  0.4283270000000  0.4838930000000 1.0
C      1  0.5262830000000  0.5245890000000  0.5680490000000 1.0
C      1  0.4748830000000  0.4739850000000  0.5680770000000 1.0
C      1  0.5164970000000  0.4667730000000  0.4317490000000 1.0
C      1  0.5667020000000  0.4762430000000  0.4722630000000 1.0
C      1  0.4320900000000  0.5172660000000  0.4671620000000 1.0
C      1  0.5675160000000  0.5184500000000  0.5337830000000 1.0
C      1  0.4662850000000  0.4324550000000  0.5172030000000 1.0
C      1  0.5259630000000  0.5656680000000  0.5230720000000 1.0
C      1  0.4744080000000  0.5673850000000  0.4752770000000 1.0
C      1  0.4339790000000  0.5262020000000  0.4766420000000 1.0
C      1  0.5255740000000  0.4761670000000  0.4333740000000 1.0
C      1  0.4757590000000  0.4342140000000  0.5261720000000 1.0
C      1  0.5670640000000  0.5266120000000  0.5226890000000 1.0
C      1  0.5670210000000  0.4652590000000  0.4805800000000 1.0
C      1  0.4313280000000  0.4756600000000  0.5262780000000 1.0
C      1  0.4637230000000  0.4820500000000  0.5689920000000 1.0
C      1  0.4751560000000  0.5258660000000  0.4316140000000 1.0
C      1  0.5352290000000  0.5156610000000  0.5714310000000 1.0
C      1  0.5250970000000  0.4317580000000  0.4749360000000 1.0
C      1  0.5170650000000  0.5675280000000  0.5325920000000 1.0
C      1  0.4824130000000  0.5683080000000  0.4640720000000 1.0
C      1  0.4212440000000  0.4456800000000  0.5483110000000 1.0
C      1  0.5470990000000  0.4215030000000  0.4449690000000 1.0
C      1  0.4452730000000  0.5482510000000  0.4219690000000 1.0
C      1  0.5747350000000  0.4408780000000  0.4508980000000 1.0
C      1  0.4261330000000  0.5584460000000  0.4530660000000 1.0
C      1  0.5768800000000  0.5574900000000  0.5461470000000 1.0
C      1  0.4521340000000  0.4261170000000  0.5583230000000 1.0
C      1  0.5490510000000  0.5714500000000  0.5574030000000 1.0
C      1  0.4515180000000  0.5759160000000  0.4412300000000 1.0
C      1  0.5597440000000  0.5453250000000  0.5776150000000 1.0
C      1  0.4405200000000  0.4513570000000  0.5760850000000 1.0
C      1  0.5573330000000  0.4522300000000  0.4252540000000 1.0
C      1  0.5479190000000  0.4413580000000  0.4278980000000 1.0
C      1  0.4411560000000  0.4286690000000  0.5490140000000 1.0
C      1  0.4284870000000  0.5491210000000  0.4420610000000 1.0
C      1  0.4520960000000  0.4423030000000  0.5771390000000 1.0
C      1  0.4546450000000  0.5593830000000  0.4216630000000 1.0
C      1  0.5485550000000  0.5546350000000  0.5774730000000 1.0
C      1  0.5583050000000  0.4212740000000  0.4542490000000 1.0
C      1  0.5582750000000  0.5739110000000  0.5463250000000 1.0
C      1  0.4425810000000  0.5770450000000  0.4528870000000 1.0
C      1  0.5758050000000  0.5483650000000  0.5576640000000 1.0
C      1  0.5759900000000  0.4522520000000  0.4416190000000 1.0
C      1  0.4210370000000  0.4549280000000  0.5595480000000 1.0
C      1  0.4216860000000  0.5625100000000  0.4899910000000 1.0
C      1  0.4890240000000  0.4213980000000  0.5623540000000 1.0
C      1  0.5618200000000  0.4889850000000  0.4200450000000 1.0
C      1  0.5804030000000  0.5619360000000  0.5090840000000 1.0
C      1  0.4201340000000  0.4391140000000  0.5114840000000 1.0
C      1  0.5872500000000  0.4332830000000  0.4855010000000 1.0
C      1  0.5102500000000  0.4206350000000  0.4384980000000 1.0
C      1  0.4853720000000  0.5891530000000  0.4327940000000 1.0
C      1  0.5108150000000  0.5710720000000  0.5669310000000 1.0
C      1  0.4324220000000  0.4850860000000  0.5897730000000 1.0
C      1  0.5681960000000  0.5090840000000  0.5801740000000 1.0
C      1  0.4382820000000  0.5114960000000  0.4209100000000 1.0
C      1  0.4909400000000  0.5674210000000  0.4189530000000 1.0
C      1  0.5668210000000  0.4190240000000  0.4904800000000 1.0
C      1  0.4187820000000  0.4911700000000  0.5679830000000 1.0
C      1  0.5116950000000  0.5611540000000  0.5789110000000 1.0
C      1  0.5095250000000  0.4325010000000  0.4285080000000 1.0
C      1  0.4892110000000  0.4383290000000  0.5803160000000 1.0
C      1  0.4319720000000  0.4291120000000  0.5106810000000 1.0
C      1  0.4389690000000  0.5800800000000  0.4900140000000 1.0
C      1  0.5620450000000  0.5785160000000  0.5094100000000 1.0
C      1  0.5801680000000  0.4891660000000  0.4366830000000 1.0
C      1  0.5883450000000  0.5138090000000  0.5653920000000 1.0
C      1  0.4284050000000  0.5107960000000  0.4328590000000 1.0
C      1  0.5324740000000  0.4619240000000  0.4092990000000 1.0
C      1  0.4099190000000  0.5337580000000  0.4627050000000 1.0
C      1  0.4616750000000  0.4101540000000  0.5334610000000 1.0
C      1  0.4833980000000  0.4554440000000  0.5946850000000 1.0
C      1  0.5166420000000  0.5434760000000  0.5941440000000 1.0
C      1  0.4681800000000  0.5368270000000  0.4054160000000 1.0
C      1  0.5929090000000  0.5328130000000  0.5354730000000 1.0
C      1  0.4050170000000  0.4689420000000  0.5371170000000 1.0
C      1  0.5941000000000  0.4833400000000  0.4541240000000 1.0
C      1  0.5358300000000  0.4053600000000  0.4682640000000 1.0
C      1  0.4563420000000  0.5941480000000  0.4841950000000 1.0
C      1  0.5448290000000  0.5923670000000  0.5160630000000 1.0
C      1  0.4051540000000  0.4570730000000  0.5161660000000 1.0
C      1  0.4560920000000  0.5160000000000  0.4057010000000 1.0
C      1  0.5148830000000  0.4055930000000  0.4564300000000 1.0
C      1  0.5923000000000  0.4629540000000  0.4661120000000 1.0
C      1  0.5944240000000  0.5445560000000  0.5149290000000 1.0
C      1  0.4075220000000  0.5454610000000  0.4834500000000 1.0
C      1  0.5375620000000  0.5316130000000  0.5941270000000 1.0
C      1  0.5443680000000  0.4824840000000  0.4063950000000 1.0
C      1  0.4624720000000  0.4666450000000  0.5938280000000 1.0
C      1  0.4824000000000  0.4074970000000  0.5451350000000 1.0
C      1  0.4673090000000  0.5933310000000  0.4631420000000 1.0
C      1  0.5333360000000  0.5898600000000  0.5368930000000 1.0
C      1  0.4243610000000  0.5665930000000  0.5253250000000 1.0
C      1  0.5242420000000  0.4241800000000  0.5663920000000 1.0
C      1  0.5662260000000  0.5240880000000  0.4228510000000 1.0
C      1  0.5757920000000  0.5657440000000  0.4741430000000 1.0
C      1  0.4219920000000  0.4346700000000  0.4745080000000 1.0
C      1  0.5752510000000  0.4334120000000  0.5243990000000 1.0
C      1  0.4732770000000  0.4228050000000  0.4343050000000 1.0
C      1  0.5251810000000  0.5761700000000  0.4315160000000 1.0
C      1  0.4747100000000  0.5750580000000  0.5679090000000 1.0
C      1  0.4316870000000  0.5252230000000  0.5772670000000 1.0
C      1  0.5675050000000  0.4739230000000  0.5765950000000 1.0
C      1  0.4335530000000  0.4745540000000  0.4229040000000 1.0
C      1  0.5261490000000  0.5671840000000  0.4212040000000 1.0
C      1  0.5666010000000  0.4228080000000  0.5255700000000 1.0
C      1  0.4214450000000  0.5264060000000  0.5682200000000 1.0
C      1  0.4749270000000  0.5647600000000  0.5767670000000 1.0
C      1  0.4732240000000  0.4317720000000  0.4240780000000 1.0
C      1  0.5243940000000  0.4338590000000  0.5760770000000 1.0
C      1  0.4309090000000  0.4243970000000  0.4744150000000 1.0
C      1  0.4343920000000  0.5759170000000  0.5253510000000 1.0
C      1  0.5656200000000  0.5748830000000  0.4743940000000 1.0
C      1  0.5761460000000  0.5241870000000  0.4322790000000 1.0
C      1  0.5759520000000  0.4749410000000  0.5658150000000 1.0
C      1  0.4233660000000  0.4745530000000  0.4319170000000 1.0
C      1  0.3871100000000  0.5182000000000  0.5088340000000 1.0
C      1  0.5077010000000  0.3874310000000  0.5175850000000 1.0
C      1  0.5168550000000  0.5080860000000  0.3866380000000 1.0
C      1  0.6164280000000  0.5189410000000  0.4889430000000 1.0
C      1  0.3877230000000  0.4851690000000  0.4891610000000 1.0
C      1  0.6084630000000  0.4839210000000  0.5049300000000 1.0
C      1  0.4879210000000  0.3882520000000  0.4846240000000 1.0
C      1  0.5068460000000  0.6106480000000  0.4816950000000 1.0
C      1  0.4945510000000  0.6089160000000  0.5193880000000 1.0
C      1  0.4812090000000  0.5056940000000  0.6118410000000 1.0
C      1  0.5186240000000  0.4929280000000  0.6116080000000 1.0
C      1  0.4836840000000  0.4887270000000  0.3879120000000 1.0
C      1  0.5067450000000  0.5170740000000  0.3884120000000 1.0
C      1  0.5165640000000  0.3890760000000  0.5073470000000 1.0
C      1  0.3886730000000  0.5079710000000  0.5177250000000 1.0
C      1  0.4900900000000  0.5159230000000  0.6136110000000 1.0
C      1  0.4938010000000  0.4799760000000  0.3905620000000 1.0
C      1  0.5098160000000  0.4827250000000  0.6136700000000 1.0
C      1  0.4792990000000  0.3910290000000  0.4948140000000 1.0
C      1  0.4843850000000  0.6116340000000  0.5107040000000 1.0
C      1  0.5170770000000  0.6121980000000  0.4906310000000 1.0
C      1  0.6163740000000  0.5093480000000  0.4794520000000 1.0
C      1  0.6085700000000  0.4937300000000  0.5146630000000 1.0
C      1  0.3905110000000  0.4953170000000  0.4804890000000 1.0
C      1  0.4889860000000  0.4605240000000  0.4076390000000 1.0
C      1  0.4073860000000  0.4903660000000  0.4608900000000 1.0
C      1  0.4597920000000  0.4080500000000  0.4900220000000 1.0
C      1  0.5146850000000  0.4611790000000  0.5989840000000 1.0
C      1  0.4857700000000  0.5369790000000  0.5980240000000 1.0
C      1  0.5120280000000  0.5382040000000  0.4032750000000 1.0
C      1  0.5944360000000  0.4887570000000  0.5363930000000 1.0
C      1  0.4035580000000  0.5128120000000  0.5389380000000 1.0
C      1  0.6006130000000  0.5146220000000  0.4584410000000 1.0
C      1  0.5377380000000  0.4040460000000  0.5121960000000 1.0
C      1  0.4626410000000  0.5974410000000  0.5153560000000 1.0
C      1  0.5382940000000  0.5973870000000  0.4849890000000 1.0
C      1  0.4023170000000  0.4635140000000  0.4853640000000 1.0
C      1  0.4622240000000  0.4851450000000  0.4028360000000 1.0
C      1  0.4841060000000  0.4029100000000  0.4630100000000 1.0
C      1  0.5940760000000  0.4624350000000  0.5102000000000 1.0
C      1  0.6006550000000  0.5399450000000  0.4836150000000 1.0
C      1  0.4017030000000  0.5395890000000  0.5144520000000 1.0
C      1  0.5392650000000  0.4877460000000  0.5959960000000 1.0
C      1  0.5386010000000  0.5135410000000  0.4007320000000 1.0
C      1  0.4599950000000  0.5108210000000  0.5971070000000 1.0
C      1  0.5133980000000  0.4018150000000  0.5390840000000 1.0
C      1  0.5115570000000  0.5962360000000  0.4600860000000 1.0
C      1  0.4898860000000  0.5920140000000  0.5391470000000 1.0
C      1  0.4416420000000  0.5682910000000  0.5490280000000 1.0
C      1  0.5478810000000  0.4415600000000  0.5683340000000 1.0
C      1  0.5684920000000  0.5476020000000  0.4403580000000 1.0
C      1  0.5577200000000  0.5673270000000  0.4509050000000 1.0
C      1  0.4394210000000  0.4308870000000  0.4511490000000 1.0
C      1  0.5577990000000  0.4313000000000  0.5479910000000 1.0
C      1  0.4500740000000  0.4404780000000  0.4307240000000 1.0
C      1  0.5483640000000  0.5580050000000  0.4299010000000 1.0
C      1  0.4514310000000  0.5576960000000  0.5691450000000 1.0
C      1  0.4304540000000  0.5486190000000  0.5593890000000 1.0
C      1  0.5674130000000  0.4522370000000  0.5573560000000 1.0
C      1  0.4298150000000  0.4512950000000  0.4404780000000 1.0
C      1  0.5477760000000  0.5676880000000  0.4404960000000 1.0
C      1  0.5672340000000  0.4420840000000  0.5472150000000 1.0
C      1  0.4409410000000  0.5478560000000  0.5691840000000 1.0
C      1  0.4516210000000  0.5682130000000  0.5593730000000 1.0
C      1  0.4497510000000  0.4306160000000  0.4411530000000 1.0
C      1  0.5477100000000  0.4314670000000  0.5582590000000 1.0
C      1  0.4296010000000  0.4413570000000  0.4508670000000 1.0
C      1  0.4311490000000  0.5586190000000  0.5490320000000 1.0
C      1  0.5682390000000  0.5576510000000  0.4506970000000 1.0
C      1  0.5584100000000  0.5476540000000  0.4302410000000 1.0
C      1  0.5581620000000  0.4516410000000  0.5683140000000 1.0
C      1  0.4401850000000  0.4509130000000  0.4305540000000 1.0
C      1  0.5905920000000  0.4930530000000  0.5501010000000 1.0
C      1  0.5499400000000  0.5908470000000  0.4912310000000 1.0
C      1  0.4923270000000  0.5485190000000  0.5910760000000 1.0
C      1  0.4153870000000  0.4940290000000  0.4485680000000 1.0
C      1  0.5930990000000  0.5078710000000  0.4475830000000 1.0
C      1  0.4099630000000  0.5084910000000  0.5516720000000 1.0
C      1  0.4508280000000  0.5915360000000  0.5088500000000 1.0
C      1  0.5503880000000  0.4105820000000  0.5078340000000 1.0
C      1  0.4475520000000  0.4161250000000  0.4937810000000 1.0
C      1  0.5079350000000  0.5509480000000  0.4098040000000 1.0
C      1  0.4926970000000  0.4482530000000  0.4156810000000 1.0
C      1  0.5080510000000  0.4497480000000  0.5923930000000 1.0
C      1  0.5518240000000  0.4919130000000  0.5891410000000 1.0
C      1  0.4938020000000  0.5839490000000  0.5513630000000 1.0
C      1  0.5931240000000  0.5508070000000  0.4903490000000 1.0
C      1  0.4505130000000  0.4918010000000  0.4091940000000 1.0
C      1  0.4465370000000  0.5066620000000  0.5924960000000 1.0
C      1  0.5501600000000  0.5072130000000  0.4073370000000 1.0
C      1  0.5070840000000  0.5916750000000  0.4467070000000 1.0
C      1  0.5071810000000  0.4085510000000  0.5506430000000 1.0
C      1  0.4906450000000  0.4091310000000  0.4511450000000 1.0
C      1  0.4086520000000  0.5510160000000  0.5082160000000 1.0
C      1  0.4085440000000  0.4516720000000  0.4919160000000 1.0
C      1  0.5899510000000  0.4487740000000  0.5060330000000 1.0
C      1  0.4454070000000  0.5355040000000  0.4168820000000 1.0
C      1  0.4161760000000  0.4460240000000  0.5355610000000 1.0
C      1  0.5343220000000  0.4164910000000  0.4453250000000 1.0
C      1  0.5606400000000  0.5322720000000  0.5823710000000 1.0
C      1  0.4392280000000  0.4639830000000  0.5826240000000 1.0
C      1  0.5555840000000  0.4656520000000  0.4212330000000 1.0
C      1  0.5810070000000  0.4398400000000  0.4637210000000 1.0
C      1  0.4223490000000  0.5565400000000  0.4665360000000 1.0
C      1  0.5801460000000  0.5555400000000  0.5324780000000 1.0
C      1  0.4655850000000  0.4222810000000  0.5563980000000 1.0
C      1  0.5351950000000  0.5760060000000  0.5580780000000 1.0
C      1  0.4642240000000  0.5822960000000  0.4398460000000 1.0
C      1  0.4238000000000  0.5353100000000  0.4415470000000 1.0
C      1  0.5340410000000  0.4408860000000  0.4233960000000 1.0
C      1  0.4406070000000  0.4241510000000  0.5351460000000 1.0
C      1  0.5820460000000  0.5355330000000  0.5587460000000 1.0
C      1  0.5795070000000  0.4658820000000  0.4433820000000 1.0
C      1  0.4164960000000  0.4680660000000  0.5604070000000 1.0
C      1  0.4657490000000  0.4443610000000  0.5804190000000 1.0
C      1  0.4677310000000  0.5601050000000  0.4169560000000 1.0
C      1  0.5358660000000  0.5543790000000  0.5827120000000 1.0
C      1  0.5591340000000  0.4166690000000  0.4673590000000 1.0
C      1  0.5562930000000  0.5777410000000  0.5328810000000 1.0
C      1  0.4448230000000  0.5802320000000  0.4665290000000 1.0
C      1  0.5433860000000  0.4707670000000  0.4152600000000 1.0
C      1  0.4161950000000  0.5444240000000  0.4716000000000 1.0
C      1  0.4706090000000  0.4162620000000  0.5442000000000 1.0
C      1  0.4510640000000  0.4706600000000  0.5872890000000 1.0
C      1  0.5487430000000  0.5264220000000  0.5879880000000 1.0
C      1  0.4575910000000  0.5288900000000  0.4127020000000 1.0
C      1  0.5862610000000  0.5435320000000  0.5270030000000 1.0
C      1  0.4121610000000  0.4583340000000  0.5290770000000 1.0
C      1  0.5853900000000  0.4518400000000  0.4702570000000 1.0
C      1  0.5278320000000  0.4125340000000  0.4576540000000 1.0
C      1  0.4710960000000  0.5868140000000  0.4516380000000 1.0
C      1  0.5283770000000  0.5823150000000  0.5472680000000 1.0
C      1  0.4110860000000  0.4739930000000  0.5484180000000 1.0
C      1  0.4734430000000  0.5480620000000  0.4114320000000 1.0
C      1  0.5471490000000  0.4113590000000  0.4733270000000 1.0
C      1  0.5857490000000  0.4714040000000  0.4553090000000 1.0
C      1  0.5861690000000  0.5288350000000  0.5467470000000 1.0
C      1  0.4174320000000  0.5286250000000  0.4523960000000 1.0
C      1  0.5294420000000  0.5421230000000  0.5869570000000 1.0
C      1  0.5273740000000  0.4517440000000  0.4170130000000 1.0
C      1  0.4710970000000  0.4563250000000  0.5867700000000 1.0
C      1  0.4514140000000  0.4177810000000  0.5283990000000 1.0
C      1  0.4569590000000  0.5863460000000  0.4718050000000 1.0
C      1  0.5440250000000  0.5836910000000  0.5279290000000 1.0
C      1  0.3930440000000  0.5315660000000  0.5074340000000 1.0
C      1  0.5063510000000  0.3932180000000  0.5310140000000 1.0
C      1  0.5303450000000  0.5065770000000  0.3922450000000 1.0
C      1  0.6095860000000  0.5318970000000  0.4904750000000 1.0
C      1  0.3930670000000  0.4716750000000  0.4911780000000 1.0
C      1  0.6011860000000  0.4713020000000  0.5019030000000 1.0
C      1  0.4898930000000  0.3935980000000  0.4711240000000 1.0
C      1  0.5033670000000  0.6031890000000  0.4693060000000 1.0
C      1  0.4980630000000  0.5997700000000  0.5306880000000 1.0
C      1  0.4689560000000  0.5024140000000  0.6041220000000 1.0
C      1  0.5305370000000  0.4962180000000  0.6033060000000 1.0
C      1  0.4702910000000  0.4908720000000  0.3934530000000 1.0
C      1  0.5035150000000  0.5292880000000  0.3963020000000 1.0
C      1  0.5287430000000  0.3969110000000  0.5038720000000 1.0
C      1  0.3964810000000  0.5044950000000  0.5299200000000 1.0
C      1  0.4918420000000  0.5292050000000  0.6075290000000 1.0
C      1  0.4972560000000  0.4687300000000  0.3997570000000 1.0
C      1  0.5081230000000  0.4693170000000  0.6078950000000 1.0
C      1  0.4680900000000  0.4002570000000  0.4982900000000 1.0
C      1  0.4708520000000  0.6063230000000  0.5089440000000 1.0
C      1  0.5304410000000  0.6062570000000  0.4919700000000 1.0
C      1  0.6094930000000  0.5077480000000  0.4665300000000 1.0
C      1  0.6014830000000  0.4969180000000  0.5273510000000 1.0
C      1  0.3997120000000  0.4987020000000  0.4692260000000 1.0
C      1  0.5699080000000  0.4495900000000  0.4297710000000 1.0
C      1  0.4495910000000  0.4304590000000  0.5709840000000 1.0
C      1  0.5531940000000  0.4323240000000  0.4373450000000 1.0
C      1  0.4472910000000  0.5659130000000  0.4324730000000 1.0
C      1  0.5544710000000  0.5621020000000  0.5664510000000 1.0
C      1  0.4317450000000  0.4473610000000  0.5660100000000 1.0
C      1  0.4378360000000  0.5543720000000  0.4329050000000 1.0
C      1  0.4306250000000  0.5710520000000  0.4504940000000 1.0
C      1  0.5660450000000  0.5526600000000  0.5666640000000 1.0
C      1  0.4320840000000  0.4380430000000  0.5543610000000 1.0
C      1  0.5647880000000  0.4320110000000  0.4467600000000 1.0
C      1  0.5708830000000  0.5693850000000  0.5487820000000 1.0
END
