TITL C-73717-2040-16 -5.79318021433893 1000000 -3651.57791695977 0 0 540 (C1) n - 1
REM
REM in /home/chem/mssmkc/work/GAP20/Larger-Clusters/Only-C240/New/BUILD-ONLY
REM
REM
REM
REM
REM
REM ./C.cell (4d22446d3c8a03e2533cb19ef5564aa4)
REM
REM compiler GCC version 8.3.0
REM options -cpp -mtune=generic -march=x86-64 -g -O0
REM seed -286007787 -1500932402 -231116619 -1303039178 -1999932581 -2099447874 -1996752358 -397918773 833529658 -2075076887 253706127 -1161037619 640619358 1592769338 -853091774 768566330 -44780237 267450676 139474523 -861070268 -613613032 1453644486 -1871149892 610024246 -1967952529 997851679 1833157227 2104911017 1652132444 1706809718 877513099 -1158944157 857734455
REM
CELL 1.54180  100.00000  100.00000  100.00000   90.00000   90.00000   90.00000
LATT -1
SFAC C  
C      1  0.4025690000000  0.4915330000000  0.5007100000000 1.0
C      1  0.4985170000000  0.3931590000000  0.4880270000000 1.0
C      1  0.4939540000000  0.4890240000000  0.3904590000000 1.0
C      1  0.4047420000000  0.5119290000000  0.5011590000000 1.0
C      1  0.6158750000000  0.5142490000000  0.5017920000000 1.0
C      1  0.6170280000000  0.4934490000000  0.5023190000000 1.0
C      1  0.5005820000000  0.6077730000000  0.5140980000000 1.0
C      1  0.5006530000000  0.6019650000000  0.4942110000000 1.0
C      1  0.4998720000000  0.3982170000000  0.5079280000000 1.0
C      1  0.4902010000000  0.4987410000000  0.6043640000000 1.0
C      1  0.5145980000000  0.4900990000000  0.3930530000000 1.0
C      1  0.5111650000000  0.4993920000000  0.6029240000000 1.0
C      1  0.4012340000000  0.5021660000000  0.4902700000000 1.0
C      1  0.5044610000000  0.4791880000000  0.3904350000000 1.0
C      1  0.4888250000000  0.3963890000000  0.4986970000000 1.0
C      1  0.4036750000000  0.5019520000000  0.5109980000000 1.0
C      1  0.6157580000000  0.5034120000000  0.5125600000000 1.0
C      1  0.6172050000000  0.5039640000000  0.4914220000000 1.0
C      1  0.5005440000000  0.5090490000000  0.6069110000000 1.0
C      1  0.5009980000000  0.4895970000000  0.5996730000000 1.0
C      1  0.5038580000000  0.4998000000000  0.3939860000000 1.0
C      1  0.4902150000000  0.6069330000000  0.5037300000000 1.0
C      1  0.5092510000000  0.3929780000000  0.4982670000000 1.0
C      1  0.5109670000000  0.6038970000000  0.5040900000000 1.0
C      1  0.5864290000000  0.5466650000000  0.5364140000000 1.0
C      1  0.5422460000000  0.5668990000000  0.5487840000000 1.0
C      1  0.5404770000000  0.5410900000000  0.5801210000000 1.0
C      1  0.5871090000000  0.4579470000000  0.4731550000000 1.0
C      1  0.4267380000000  0.4510670000000  0.5354600000000 1.0
C      1  0.4423680000000  0.5411040000000  0.4523770000000 1.0
C      1  0.5508530000000  0.4276470000000  0.4543650000000 1.0
C      1  0.4646610000000  0.4259110000000  0.5470990000000 1.0
C      1  0.4640250000000  0.5714980000000  0.4621040000000 1.0
C      1  0.5460560000000  0.4509640000000  0.4239770000000 1.0
C      1  0.4513410000000  0.4608230000000  0.5748770000000 1.0
C      1  0.4624030000000  0.5340870000000  0.4077190000000 1.0
C      1  0.5865860000000  0.5358340000000  0.5470000000000 1.0
C      1  0.5431560000000  0.5467090000000  0.5694720000000 1.0
C      1  0.5394590000000  0.5776910000000  0.5435440000000 1.0
C      1  0.5923740000000  0.4632330000000  0.4604700000000 1.0
C      1  0.4318470000000  0.5381740000000  0.4580590000000 1.0
C      1  0.4253550000000  0.4608010000000  0.5468640000000 1.0
C      1  0.5542070000000  0.4464130000000  0.4319620000000 1.0
C      1  0.4745920000000  0.5426490000000  0.4088390000000 1.0
C      1  0.4637710000000  0.4519950000000  0.5720710000000 1.0
C      1  0.5444860000000  0.4176050000000  0.4571280000000 1.0
C      1  0.4628920000000  0.5616930000000  0.4547940000000 1.0
C      1  0.4529830000000  0.4239560000000  0.5373180000000 1.0
C      1  0.4431070000000  0.5908840000000  0.5669650000000 1.0
C      1  0.5578070000000  0.4494180000000  0.5841230000000 1.0
C      1  0.5837490000000  0.5640340000000  0.4519930000000 1.0
C      1  0.4383850000000  0.4106810000000  0.4399720000000 1.0
C      1  0.5532330000000  0.4150740000000  0.5552930000000 1.0
C      1  0.5416990000000  0.5869060000000  0.4431530000000 1.0
C      1  0.5595630000000  0.5511780000000  0.4168600000000 1.0
C      1  0.4347710000000  0.5537950000000  0.5921160000000 1.0
C      1  0.4329180000000  0.4498260000000  0.4114860000000 1.0
C      1  0.5867190000000  0.4427190000000  0.5474430000000 1.0
C      1  0.4077800000000  0.4405090000000  0.4487340000000 1.0
C      1  0.4072620000000  0.5637860000000  0.5566230000000 1.0
C      1  0.4438520000000  0.5628160000000  0.5924840000000 1.0
C      1  0.5517040000000  0.5859030000000  0.4515150000000 1.0
C      1  0.5864400000000  0.4511530000000  0.5570960000000 1.0
C      1  0.4389730000000  0.4385150000000  0.4113560000000 1.0
C      1  0.5504530000000  0.5601020000000  0.4183730000000 1.0
C      1  0.5479010000000  0.4412470000000  0.5836560000000 1.0
C      1  0.5614770000000  0.4156990000000  0.5455170000000 1.0
C      1  0.4339920000000  0.5912060000000  0.5579950000000 1.0
C      1  0.4313390000000  0.4114920000000  0.4505940000000 1.0
C      1  0.5851620000000  0.5551800000000  0.4429310000000 1.0
C      1  0.4084580000000  0.4489580000000  0.4390730000000 1.0
C      1  0.4075050000000  0.5543970000000  0.5652940000000 1.0
C      1  0.4670740000000  0.5810450000000  0.5731920000000 1.0
C      1  0.5657120000000  0.4733570000000  0.5756330000000 1.0
C      1  0.5730670000000  0.5688580000000  0.4757100000000 1.0
C      1  0.4618840000000  0.4179670000000  0.4300160000000 1.0
C      1  0.5285710000000  0.4226290000000  0.5620670000000 1.0
C      1  0.5208900000000  0.5729820000000  0.4354160000000 1.0
C      1  0.5695210000000  0.5281680000000  0.4262030000000 1.0
C      1  0.4280390000000  0.5303980000000  0.5810560000000 1.0
C      1  0.4301860000000  0.4732370000000  0.4238010000000 1.0
C      1  0.5767790000000  0.4372890000000  0.5227900000000 1.0
C      1  0.4173170000000  0.4336330000000  0.4729630000000 1.0
C      1  0.4170160000000  0.5722260000000  0.5332610000000 1.0
C      1  0.4674360000000  0.5703840000000  0.5825800000000 1.0
C      1  0.5619650000000  0.5777280000000  0.4747580000000 1.0
C      1  0.5756640000000  0.4742690000000  0.5656220000000 1.0
C      1  0.4618130000000  0.4272720000000  0.4194350000000 1.0
C      1  0.5250390000000  0.5627570000000  0.4259950000000 1.0
C      1  0.5263150000000  0.4337740000000  0.5704050000000 1.0
C      1  0.5670260000000  0.4273080000000  0.5220780000000 1.0
C      1  0.4271960000000  0.5822610000000  0.5337770000000 1.0
C      1  0.4275870000000  0.4239630000000  0.4736860000000 1.0
C      1  0.5796260000000  0.5303180000000  0.4358370000000 1.0
C      1  0.4193540000000  0.4733380000000  0.4330760000000 1.0
C      1  0.4177420000000  0.5304370000000  0.5711140000000 1.0
C      1  0.5236530000000  0.5407630000000  0.4133850000000 1.0
C      1  0.4086560000000  0.5235550000000  0.5490860000000 1.0
C      1  0.5455040000000  0.4177640000000  0.5145150000000 1.0
C      1  0.5157920000000  0.4548610000000  0.5773440000000 1.0
C      1  0.4721790000000  0.4477840000000  0.4105560000000 1.0
C      1  0.4765720000000  0.5479280000000  0.5901760000000 1.0
C      1  0.4095550000000  0.4789870000000  0.4545490000000 1.0
C      1  0.5854220000000  0.4826790000000  0.5451090000000 1.0
C      1  0.5908520000000  0.5241570000000  0.4572050000000 1.0
C      1  0.5400160000000  0.5854220000000  0.4814210000000 1.0
C      1  0.4490930000000  0.5921970000000  0.5266560000000 1.0
C      1  0.4495520000000  0.4143160000000  0.4795250000000 1.0
C      1  0.5232880000000  0.4122920000000  0.5407660000000 1.0
C      1  0.4076310000000  0.5507950000000  0.5255100000000 1.0
C      1  0.5491820000000  0.5166480000000  0.4172590000000 1.0
C      1  0.5120770000000  0.5790750000000  0.4577120000000 1.0
C      1  0.4724990000000  0.4102430000000  0.4517220000000 1.0
C      1  0.4755700000000  0.5909120000000  0.5514660000000 1.0
C      1  0.4108780000000  0.4553470000000  0.4812660000000 1.0
C      1  0.5859690000000  0.5489640000000  0.4828400000000 1.0
C      1  0.5865500000000  0.4585520000000  0.5183980000000 1.0
C      1  0.5435140000000  0.4789290000000  0.5841430000000 1.0
C      1  0.4502470000000  0.5229460000000  0.5899410000000 1.0
C      1  0.4536850000000  0.4792460000000  0.4167600000000 1.0
C      1  0.4976800000000  0.4282500000000  0.4170720000000 1.0
C      1  0.4304880000000  0.5016360000000  0.4509200000000 1.0
C      1  0.4327750000000  0.4367420000000  0.5063280000000 1.0
C      1  0.5037050000000  0.5683940000000  0.5767240000000 1.0
C      1  0.4923140000000  0.5620880000000  0.4205370000000 1.0
C      1  0.4926520000000  0.4328530000000  0.5587870000000 1.0
C      1  0.4262920000000  0.4998550000000  0.5567000000000 1.0
C      1  0.5606870000000  0.4858100000000  0.4374520000000 1.0
C      1  0.5579690000000  0.5003790000000  0.5588190000000 1.0
C      1  0.4354430000000  0.5669210000000  0.5079340000000 1.0
C      1  0.5490880000000  0.5695140000000  0.5060990000000 1.0
C      1  0.5517890000000  0.4267640000000  0.4853720000000 1.0
C      1  0.4967690000000  0.4165120000000  0.4249020000000 1.0
C      1  0.4212430000000  0.4446990000000  0.5069440000000 1.0
C      1  0.4409670000000  0.4960870000000  0.4436170000000 1.0
C      1  0.5032570000000  0.5787680000000  0.5692260000000 1.0
C      1  0.4935130000000  0.4208440000000  0.5519090000000 1.0
C      1  0.4864090000000  0.5617640000000  0.4335110000000 1.0
C      1  0.4253890000000  0.5599760000000  0.5018640000000 1.0
C      1  0.5620400000000  0.4357590000000  0.4792430000000 1.0
C      1  0.5569760000000  0.5587600000000  0.5017870000000 1.0
C      1  0.4365060000000  0.5056510000000  0.5637750000000 1.0
C      1  0.5512850000000  0.5046750000000  0.5703820000000 1.0
C      1  0.5609570000000  0.4921880000000  0.4264400000000 1.0
C      1  0.4096150000000  0.4980760000000  0.5231460000000 1.0
C      1  0.5230140000000  0.3950240000000  0.4956840000000 1.0
C      1  0.4988750000000  0.5121000000000  0.3983140000000 1.0
C      1  0.4016220000000  0.5056590000000  0.4770860000000 1.0
C      1  0.6077370000000  0.5062420000000  0.5233930000000 1.0
C      1  0.6107660000000  0.5000560000000  0.4797280000000 1.0
C      1  0.5216250000000  0.5959150000000  0.5084120000000 1.0
C      1  0.4776530000000  0.6014090000000  0.5015050000000 1.0
C      1  0.4771580000000  0.4032640000000  0.5016560000000 1.0
C      1  0.4975260000000  0.4829800000000  0.5875640000000 1.0
C      1  0.5061720000000  0.4656270000000  0.3915900000000 1.0
C      1  0.5036280000000  0.5218930000000  0.6021700000000 1.0
C      1  0.4126950000000  0.5237450000000  0.4992630000000 1.0
C      1  0.5280110000000  0.4881970000000  0.3954300000000 1.0
C      1  0.4975230000000  0.4095390000000  0.5165290000000 1.0
C      1  0.4128550000000  0.4817830000000  0.5042430000000 1.0
C      1  0.6077500000000  0.5249970000000  0.5051500000000 1.0
C      1  0.6103940000000  0.4817270000000  0.4982850000000 1.0
C      1  0.5221130000000  0.5047200000000  0.5957400000000 1.0
C      1  0.4782130000000  0.4969820000000  0.5974440000000 1.0
C      1  0.4801350000000  0.4910510000000  0.3922460000000 1.0
C      1  0.4962860000000  0.5906330000000  0.4868800000000 1.0
C      1  0.5018500000000  0.3994150000000  0.4760250000000 1.0
C      1  0.5031370000000  0.6018560000000  0.5264840000000 1.0
C      1  0.5637540000000  0.4711770000000  0.5401730000000 1.0
C      1  0.5389710000000  0.5622780000000  0.4720280000000 1.0
C      1  0.4625090000000  0.5468070000000  0.5689880000000 1.0
C      1  0.5668200000000  0.5320810000000  0.4605250000000 1.0
C      1  0.4306050000000  0.5366240000000  0.5466690000000 1.0
C      1  0.4320620000000  0.4671860000000  0.4570460000000 1.0
C      1  0.5417250000000  0.4383140000000  0.5287390000000 1.0
C      1  0.4525720000000  0.4346250000000  0.4648810000000 1.0
C      1  0.4520110000000  0.5696910000000  0.5381760000000 1.0
C      1  0.4622150000000  0.4507440000000  0.4335000000000 1.0
C      1  0.5321690000000  0.4591960000000  0.5590210000000 1.0
C      1  0.5325320000000  0.5387030000000  0.4371360000000 1.0
C      1  0.5649230000000  0.5417400000000  0.4712150000000 1.0
C      1  0.5419240000000  0.4697760000000  0.5609730000000 1.0
C      1  0.4621130000000  0.5694840000000  0.5485540000000 1.0
C      1  0.5640590000000  0.4615050000000  0.5293940000000 1.0
C      1  0.4302860000000  0.5474480000000  0.5367770000000 1.0
C      1  0.4318660000000  0.4566640000000  0.4671220000000 1.0
C      1  0.5437350000000  0.5296720000000  0.4385890000000 1.0
C      1  0.4544290000000  0.4628510000000  0.4354400000000 1.0
C      1  0.4525360000000  0.5362800000000  0.5685020000000 1.0
C      1  0.4611680000000  0.4326010000000  0.4534270000000 1.0
C      1  0.5290950000000  0.5601780000000  0.4609710000000 1.0
C      1  0.5319610000000  0.4365390000000  0.5392880000000 1.0
C      1  0.4965460000000  0.4687600000000  0.5858890000000 1.0
C      1  0.6122120000000  0.4948490000000  0.4664590000000 1.0
C      1  0.4657130000000  0.6037730000000  0.4944110000000 1.0
C      1  0.4868640000000  0.5150490000000  0.3907630000000 1.0
C      1  0.5086990000000  0.5344410000000  0.6065000000000 1.0
C      1  0.5087720000000  0.4544920000000  0.3965750000000 1.0
C      1  0.6082770000000  0.5099140000000  0.5367310000000 1.0
C      1  0.4060380000000  0.5126860000000  0.4674440000000 1.0
C      1  0.4054670000000  0.4889460000000  0.5322870000000 1.0
C      1  0.4648210000000  0.4018900000000  0.5082260000000 1.0
C      1  0.5279610000000  0.3976150000000  0.4830080000000 1.0
C      1  0.5339630000000  0.5968400000000  0.5134310000000 1.0
C      1  0.4947260000000  0.5902790000000  0.4723720000000 1.0
C      1  0.6139760000000  0.4704060000000  0.4926000000000 1.0
C      1  0.4660690000000  0.4901890000000  0.5971150000000 1.0
C      1  0.4945350000000  0.4106670000000  0.5294880000000 1.0
C      1  0.5084850000000  0.6050840000000  0.5391400000000 1.0
C      1  0.5054120000000  0.3934570000000  0.4638730000000 1.0
C      1  0.6085620000000  0.5379560000000  0.5101080000000 1.0
C      1  0.4112560000000  0.4677730000000  0.5028630000000 1.0
C      1  0.4066390000000  0.5343260000000  0.4935160000000 1.0
C      1  0.4763100000000  0.5046790000000  0.3913950000000 1.0
C      1  0.5357410000000  0.4800100000000  0.4014380000000 1.0
C      1  0.5342780000000  0.5099680000000  0.5978530000000 1.0
C      1  0.4140950000000  0.4827110000000  0.5407080000000 1.0
C      1  0.5363660000000  0.4061520000000  0.4767600000000 1.0
C      1  0.4817120000000  0.5283420000000  0.3914060000000 1.0
C      1  0.4164880000000  0.5194690000000  0.4617160000000 1.0
C      1  0.6035160000000  0.5203200000000  0.5438890000000 1.0
C      1  0.6071390000000  0.4843220000000  0.4590250000000 1.0
C      1  0.5406940000000  0.5880730000000  0.5215320000000 1.0
C      1  0.4606460000000  0.5977240000000  0.4827650000000 1.0
C      1  0.4588930000000  0.4084540000000  0.5184050000000 1.0
C      1  0.4856150000000  0.4646000000000  0.5766030000000 1.0
C      1  0.5138580000000  0.4463630000000  0.4067910000000 1.0
C      1  0.5210580000000  0.5405040000000  0.6026660000000 1.0
C      1  0.4129570000000  0.5439500000000  0.4856040000000 1.0
C      1  0.5365820000000  0.4728570000000  0.4132600000000 1.0
C      1  0.4871740000000  0.4163470000000  0.5392560000000 1.0
C      1  0.4179370000000  0.4582490000000  0.5121630000000 1.0
C      1  0.6038230000000  0.5446240000000  0.5209160000000 1.0
C      1  0.6084830000000  0.4629380000000  0.4826840000000 1.0
C      1  0.5413280000000  0.5186030000000  0.5898430000000 1.0
C      1  0.4589910000000  0.4816450000000  0.5888580000000 1.0
C      1  0.4649320000000  0.5093920000000  0.3991090000000 1.0
C      1  0.4833150000000  0.5824300000000  0.4679560000000 1.0
C      1  0.5167530000000  0.3965230000000  0.4562310000000 1.0
C      1  0.5207160000000  0.6006710000000  0.5445340000000 1.0
C      1  0.4176370000000  0.4592580000000  0.4382760000000 1.0
C      1  0.4320310000000  0.4216250000000  0.4599450000000 1.0
C      1  0.4491280000000  0.4350640000000  0.4199340000000 1.0
C      1  0.4169080000000  0.5443630000000  0.5659580000000 1.0
C      1  0.5779040000000  0.5435760000000  0.4418080000000 1.0
C      1  0.5772840000000  0.4612130000000  0.5586920000000 1.0
C      1  0.4327090000000  0.5823930000000  0.5475350000000 1.0
C      1  0.5557770000000  0.5770300000000  0.4610170000000 1.0
C      1  0.5617220000000  0.4254200000000  0.5356650000000 1.0
C      1  0.4538430000000  0.5646560000000  0.5832080000000 1.0
C      1  0.5396280000000  0.5596970000000  0.4269200000000 1.0
C      1  0.5390920000000  0.4403480000000  0.5731060000000 1.0
C      1  0.4165360000000  0.4390630000000  0.4592020000000 1.0
C      1  0.4339810000000  0.4593770000000  0.4214090000000 1.0
C      1  0.4490170000000  0.4188250000000  0.4371540000000 1.0
C      1  0.4165940000000  0.5658010000000  0.5467050000000 1.0
C      1  0.5778070000000  0.4423130000000  0.5368050000000 1.0
C      1  0.5751380000000  0.5629150000000  0.4625290000000 1.0
C      1  0.4333850000000  0.5441830000000  0.5823910000000 1.0
C      1  0.5600590000000  0.4596300000000  0.5751480000000 1.0
C      1  0.5616310000000  0.5407830000000  0.4257000000000 1.0
C      1  0.4533270000000  0.5817130000000  0.5677900000000 1.0
C      1  0.5425770000000  0.4236410000000  0.5570500000000 1.0
C      1  0.5307380000000  0.5821990000000  0.4386450000000 1.0
C      1  0.5339180000000  0.6006250000000  0.5427630000000 1.0
C      1  0.5403380000000  0.5328170000000  0.5914030000000 1.0
C      1  0.6002970000000  0.5448810000000  0.5342780000000 1.0
C      1  0.5296090000000  0.3979150000000  0.4546890000000 1.0
C      1  0.4728290000000  0.4180870000000  0.5390910000000 1.0
C      1  0.4694170000000  0.5841750000000  0.4654570000000 1.0
C      1  0.5370180000000  0.4574620000000  0.4151380000000 1.0
C      1  0.4597190000000  0.4695380000000  0.5818860000000 1.0
C      1  0.4625830000000  0.5237120000000  0.3979130000000 1.0
C      1  0.6129540000000  0.4633130000000  0.4698260000000 1.0
C      1  0.4194260000000  0.4594680000000  0.5268700000000 1.0
C      1  0.4129610000000  0.5417180000000  0.4724800000000 1.0
C      1  0.5343340000000  0.5392380000000  0.6029030000000 1.0
C      1  0.5395440000000  0.5892650000000  0.5357820000000 1.0
C      1  0.6003840000000  0.5337110000000  0.5449260000000 1.0
C      1  0.5260920000000  0.4507940000000  0.4108960000000 1.0
C      1  0.4690230000000  0.5295400000000  0.3868110000000 1.0
C      1  0.4718660000000  0.4614810000000  0.5781230000000 1.0
C      1  0.5380440000000  0.4062380000000  0.4623630000000 1.0
C      1  0.4620750000000  0.5953470000000  0.4696790000000 1.0
C      1  0.4610710000000  0.4149040000000  0.5305410000000 1.0
C      1  0.6048230000000  0.4701000000000  0.4602880000000 1.0
C      1  0.4192030000000  0.5337650000000  0.4630510000000 1.0
C      1  0.4174390000000  0.4689000000000  0.5387290000000 1.0
C      1  0.5171490000000  0.4644210000000  0.5983880000000 1.0
C      1  0.6111550000000  0.5290100000000  0.4708980000000 1.0
C      1  0.4655320000000  0.6115630000000  0.5271040000000 1.0
C      1  0.5279380000000  0.5237490000000  0.3949010000000 1.0
C      1  0.4766670000000  0.5308690000000  0.6081490000000 1.0
C      1  0.4721770000000  0.4684520000000  0.3976910000000 1.0
C      1  0.6082050000000  0.4771080000000  0.5356260000000 1.0
C      1  0.3928110000000  0.4759330000000  0.4718450000000 1.0
C      1  0.3907320000000  0.5221350000000  0.5314570000000 1.0
C      1  0.4633110000000  0.3929370000000  0.4776680000000 1.0
C      1  0.5300920000000  0.3992260000000  0.5077840000000 1.0
C      1  0.5253250000000  0.6036290000000  0.4750220000000 1.0
C      1  0.5155160000000  0.6008620000000  0.4676900000000 1.0
C      1  0.6088330000000  0.4679050000000  0.5258490000000 1.0
C      1  0.4664030000000  0.5224460000000  0.6095910000000 1.0
C      1  0.5253780000000  0.3967540000000  0.5210580000000 1.0
C      1  0.4760870000000  0.6098300000000  0.5351490000000 1.0
C      1  0.4734630000000  0.3928640000000  0.4690930000000 1.0
C      1  0.6093700000000  0.5394450000000  0.4789810000000 1.0
C      1  0.3961650000000  0.4736980000000  0.4839990000000 1.0
C      1  0.3896670000000  0.5331850000000  0.5241310000000 1.0
C      1  0.4709880000000  0.4819930000000  0.3988300000000 1.0
C      1  0.5343330000000  0.5121090000000  0.3972600000000 1.0
C      1  0.5274190000000  0.4713310000000  0.6005940000000 1.0
C      1  0.4196370000000  0.4725940000000  0.4624470000000 1.0
C      1  0.4573920000000  0.4225370000000  0.4708620000000 1.0
C      1  0.4675070000000  0.4558010000000  0.4212110000000 1.0
C      1  0.4180590000000  0.5313770000000  0.5416020000000 1.0
C      1  0.5801600000000  0.5292210000000  0.4651720000000 1.0
C      1  0.5762620000000  0.4766750000000  0.5357990000000 1.0
C      1  0.4571280000000  0.5823040000000  0.5333070000000 1.0
C      1  0.5321850000000  0.5744230000000  0.4760000000000 1.0
C      1  0.5377350000000  0.4256060000000  0.5231780000000 1.0
C      1  0.4681590000000  0.5413050000000  0.5809160000000 1.0
C      1  0.5295320000000  0.5335610000000  0.4242190000000 1.0
C      1  0.5251330000000  0.4630720000000  0.5709670000000 1.0
C      1  0.4196520000000  0.4619930000000  0.4726880000000 1.0
C      1  0.4595570000000  0.4682530000000  0.4230750000000 1.0
C      1  0.4662230000000  0.4205230000000  0.4591640000000 1.0
C      1  0.4176840000000  0.5424810000000  0.5315180000000 1.0
C      1  0.5766750000000  0.4667330000000  0.5248870000000 1.0
C      1  0.5781160000000  0.5389270000000  0.4761510000000 1.0
C      1  0.4580430000000  0.5304350000000  0.5805050000000 1.0
C      1  0.5354530000000  0.4738650000000  0.5732470000000 1.0
C      1  0.5404950000000  0.5238860000000  0.4257290000000 1.0
C      1  0.4673620000000  0.5819780000000  0.5440180000000 1.0
C      1  0.5280200000000  0.4237290000000  0.5338160000000 1.0
C      1  0.5219290000000  0.5722380000000  0.4650120000000 1.0
C      1  0.4871170000000  0.5680920000000  0.4871190000000 1.0
C      1  0.4677890000000  0.5000390000000  0.5758560000000 1.0
C      1  0.5887510000000  0.4734380000000  0.4918990000000 1.0
C      1  0.4946190000000  0.4340050000000  0.5136870000000 1.0
C      1  0.5030470000000  0.4166840000000  0.4597840000000 1.0
C      1  0.5056670000000  0.5819180000000  0.5391500000000 1.0
C      1  0.4754650000000  0.5042400000000  0.4204900000000 1.0
C      1  0.5263700000000  0.5125650000000  0.5729170000000 1.0
C      1  0.5148810000000  0.4794020000000  0.4226360000000 1.0
C      1  0.5855600000000  0.5329720000000  0.5090910000000 1.0
C      1  0.4330860000000  0.5366850000000  0.4957870000000 1.0
C      1  0.4362790000000  0.4789160000000  0.5061420000000 1.0
C      1  0.4918720000000  0.4852940000000  0.5641150000000 1.0
C      1  0.4646270000000  0.5808090000000  0.5007480000000 1.0
C      1  0.5888850000000  0.4962250000000  0.4705630000000 1.0
C      1  0.4948120000000  0.5300760000000  0.4117770000000 1.0
C      1  0.4979940000000  0.4512780000000  0.4237390000000 1.0
C      1  0.5067060000000  0.5359040000000  0.5830350000000 1.0
C      1  0.4673560000000  0.4245460000000  0.5027880000000 1.0
C      1  0.5243870000000  0.5725440000000  0.5146620000000 1.0
C      1  0.5257810000000  0.4254850000000  0.4839200000000 1.0
C      1  0.5854110000000  0.5092970000000  0.5312460000000 1.0
C      1  0.4320030000000  0.4958510000000  0.5323510000000 1.0
C      1  0.4337660000000  0.5105580000000  0.4750700000000 1.0
C      1  0.4248270000000  0.4956730000000  0.5207280000000 1.0
C      1  0.5133090000000  0.4229160000000  0.4824250000000 1.0
C      1  0.4960210000000  0.5166740000000  0.4140290000000 1.0
C      1  0.4340870000000  0.5132590000000  0.4874550000000 1.0
C      1  0.5925640000000  0.5104110000000  0.5192550000000 1.0
C      1  0.5951600000000  0.4958940000000  0.4831260000000 1.0
C      1  0.5140940000000  0.5809630000000  0.5145850000000 1.0
C      1  0.4781740000000  0.5852560000000  0.5026320000000 1.0
C      1  0.4799200000000  0.4186230000000  0.5022640000000 1.0
C      1  0.4914270000000  0.4914250000000  0.5769620000000 1.0
C      1  0.4979240000000  0.4638940000000  0.4247890000000 1.0
C      1  0.5064730000000  0.5221810000000  0.5861740000000 1.0
C      1  0.4288010000000  0.5237910000000  0.4959560000000 1.0
C      1  0.5020590000000  0.4763820000000  0.4235060000000 1.0
C      1  0.4919690000000  0.4216500000000  0.5087990000000 1.0
C      1  0.4254930000000  0.4869990000000  0.5094690000000 1.0
C      1  0.5926060000000  0.5208620000000  0.5093490000000 1.0
C      1  0.5944170000000  0.4856240000000  0.4936990000000 1.0
C      1  0.5158650000000  0.5117320000000  0.5810970000000 1.0
C      1  0.4805600000000  0.4994860000000  0.5812400000000 1.0
C      1  0.4867210000000  0.5097550000000  0.4221430000000 1.0
C      1  0.4887680000000  0.5801330000000  0.4945740000000 1.0
C      1  0.5054530000000  0.4148260000000  0.4738170000000 1.0
C      1  0.5051680000000  0.5857980000000  0.5256540000000 1.0
C      1  0.4304280000000  0.4455920000000  0.4565980000000 1.0
C      1  0.4490890000000  0.4323270000000  0.4438450000000 1.0
C      1  0.4411100000000  0.4554920000000  0.4347120000000 1.0
C      1  0.4300770000000  0.5582850000000  0.5478980000000 1.0
C      1  0.5630880000000  0.5532960000000  0.4612770000000 1.0
C      1  0.5640400000000  0.4495420000000  0.5390800000000 1.0
C      1  0.4514740000000  0.5687100000000  0.5596120000000 1.0
C      1  0.5396970000000  0.5572530000000  0.4519000000000 1.0
C      1  0.5433350000000  0.4373050000000  0.5498810000000 1.0
C      1  0.4409130000000  0.5464680000000  0.5690870000000 1.0
C      1  0.5540540000000  0.5412200000000  0.4391700000000 1.0
C      1  0.5533010000000  0.4591840000000  0.5613870000000 1.0
C      1  0.4308390000000  0.4566510000000  0.4455850000000 1.0
C      1  0.4493690000000  0.4423660000000  0.4332400000000 1.0
C      1  0.4399370000000  0.4341620000000  0.4562720000000 1.0
C      1  0.4303320000000  0.5466680000000  0.5584780000000 1.0
C      1  0.5639570000000  0.4599050000000  0.5509160000000 1.0
C      1  0.5645890000000  0.5425590000000  0.4497230000000 1.0
C      1  0.4517330000000  0.5577310000000  0.5695590000000 1.0
C      1  0.5423570000000  0.4479310000000  0.5601370000000 1.0
C      1  0.5415430000000  0.5508860000000  0.4392340000000 1.0
C      1  0.4405010000000  0.5690190000000  0.5485190000000 1.0
C      1  0.5537630000000  0.4386190000000  0.5384820000000 1.0
C      1  0.5505790000000  0.5618220000000  0.4611180000000 1.0
C      1  0.5533130000000  0.5476600000000  0.5597500000000 1.0
C      1  0.5745730000000  0.5409150000000  0.5525200000000 1.0
C      1  0.5633660000000  0.5595530000000  0.5402940000000 1.0
C      1  0.5636950000000  0.4452510000000  0.4424790000000 1.0
C      1  0.4557670000000  0.4445640000000  0.5636280000000 1.0
C      1  0.4706030000000  0.5468450000000  0.4220440000000 1.0
C      1  0.5816490000000  0.4561680000000  0.4534900000000 1.0
C      1  0.4346130000000  0.4536130000000  0.5546170000000 1.0
C      1  0.4509930000000  0.5351250000000  0.4316480000000 1.0
C      1  0.5660290000000  0.4416810000000  0.4671020000000 1.0
C      1  0.4455550000000  0.4337680000000  0.5438100000000 1.0
C      1  0.4635450000000  0.5527800000000  0.4440120000000 1.0
C      1  0.5529060000000  0.5577040000000  0.5495260000000 1.0
C      1  0.5742670000000  0.5516460000000  0.5419370000000 1.0
C      1  0.5641760000000  0.5388690000000  0.5609550000000 1.0
C      1  0.5600790000000  0.4382600000000  0.4544670000000 1.0
C      1  0.4736880000000  0.5541110000000  0.4336890000000 1.0
C      1  0.4561130000000  0.4346760000000  0.5538970000000 1.0
C      1  0.5765590000000  0.4510590000000  0.4665830000000 1.0
C      1  0.4526780000000  0.5429940000000  0.4429650000000 1.0
C      1  0.4355700000000  0.4436180000000  0.5435960000000 1.0
C      1  0.5761180000000  0.4519770000000  0.4420740000000 1.0
C      1  0.4588000000000  0.5380650000000  0.4210700000000 1.0
C      1  0.4444190000000  0.4538030000000  0.5648550000000 1.0
C      1  0.4547900000000  0.4018500000000  0.4809530000000 1.0
C      1  0.4746180000000  0.4563090000000  0.3998160000000 1.0
C      1  0.3968440000000  0.4779870000000  0.4597770000000 1.0
C      1  0.4551460000000  0.6044120000000  0.5250720000000 1.0
C      1  0.5343910000000  0.5976930000000  0.4821240000000 1.0
C      1  0.5398900000000  0.4085010000000  0.5065920000000 1.0
C      1  0.4813910000000  0.5400240000000  0.6005070000000 1.0
C      1  0.5247860000000  0.5343590000000  0.4011390000000 1.0
C      1  0.5083820000000  0.4613260000000  0.5882570000000 1.0
C      1  0.3980930000000  0.5189040000000  0.5413980000000 1.0
C      1  0.6032230000000  0.5228040000000  0.4629750000000 1.0
C      1  0.5987690000000  0.4820250000000  0.5424710000000 1.0
C      1  0.4619990000000  0.4874760000000  0.4086900000000 1.0
C      1  0.4778870000000  0.3998850000000  0.4592840000000 1.0
C      1  0.4046020000000  0.4646680000000  0.4903770000000 1.0
C      1  0.4562730000000  0.5206640000000  0.6019660000000 1.0
C      1  0.5372810000000  0.4784500000000  0.5962150000000 1.0
C      1  0.5433170000000  0.5104200000000  0.4064880000000 1.0
C      1  0.4801240000000  0.6017080000000  0.5441690000000 1.0
C      1  0.5237810000000  0.4010240000000  0.5326480000000 1.0
C      1  0.5065980000000  0.5910620000000  0.4643100000000 1.0
C      1  0.3958600000000  0.5441590000000  0.5227040000000 1.0
C      1  0.5997920000000  0.4607720000000  0.5205370000000 1.0
C      1  0.5993360000000  0.5464560000000  0.4823950000000 1.0
C      1  0.4729330000000  0.4330160000000  0.4126450000000 1.0
C      1  0.4148100000000  0.4836730000000  0.4412920000000 1.0
C      1  0.4365250000000  0.4211460000000  0.4843190000000 1.0
C      1  0.4788480000000  0.5624570000000  0.5865140000000 1.0
C      1  0.5176140000000  0.5539600000000  0.4176700000000 1.0
C      1  0.5142330000000  0.4412110000000  0.5723930000000 1.0
C      1  0.4126990000000  0.5199760000000  0.5630390000000 1.0
C      1  0.5866330000000  0.5204940000000  0.4431670000000 1.0
C      1  0.5789120000000  0.4857020000000  0.5582690000000 1.0
C      1  0.4354890000000  0.5867510000000  0.5232720000000 1.0
C      1  0.5540680000000  0.5822860000000  0.4852380000000 1.0
C      1  0.5587030000000  0.4237970000000  0.5112770000000 1.0
C      1  0.4731200000000  0.4127800000000  0.4370840000000 1.0
C      1  0.4127100000000  0.4413520000000  0.4837330000000 1.0
C      1  0.4403140000000  0.4829410000000  0.4222020000000 1.0
C      1  0.4779680000000  0.5866380000000  0.5657580000000 1.0
C      1  0.5188210000000  0.4152510000000  0.5547150000000 1.0
C      1  0.5081810000000  0.5731770000000  0.4443860000000 1.0
C      1  0.4117410000000  0.5649240000000  0.5224270000000 1.0
C      1  0.5806620000000  0.4460970000000  0.5124350000000 1.0
C      1  0.5776520000000  0.5611940000000  0.4866660000000 1.0
C      1  0.4365580000000  0.5197600000000  0.5844520000000 1.0
C      1  0.5576080000000  0.4833400000000  0.5811020000000 1.0
C      1  0.5636510000000  0.5160530000000  0.4218840000000 1.0
C      1  0.4887330000000  0.4730370000000  0.5653540000000 1.0
C      1  0.5989370000000  0.4951460000000  0.4601520000000 1.0
C      1  0.4568500000000  0.5919050000000  0.4948860000000 1.0
C      1  0.4863580000000  0.5366730000000  0.4027440000000 1.0
C      1  0.5094350000000  0.5433300000000  0.5953260000000 1.0
C      1  0.5040660000000  0.4408080000000  0.4168900000000 1.0
C      1  0.5945500000000  0.5095010000000  0.5426620000000 1.0
C      1  0.4284500000000  0.5100140000000  0.4620220000000 1.0
C      1  0.4254660000000  0.4932810000000  0.5443760000000 1.0
C      1  0.4575490000000  0.4146700000000  0.5059370000000 1.0
C      1  0.5389410000000  0.4207320000000  0.4830370000000 1.0
C      1  0.5383520000000  0.5738670000000  0.5140580000000 1.0
C      1  0.4852940000000  0.5697900000000  0.4746140000000 1.0
C      1  0.5934040000000  0.4623860000000  0.4848840000000 1.0
C      1  0.4582810000000  0.4949220000000  0.5853300000000 1.0
C      1  0.4962700000000  0.4438720000000  0.5212880000000 1.0
C      1  0.5089100000000  0.5932160000000  0.5475690000000 1.0
C      1  0.5042750000000  0.4038010000000  0.4539620000000 1.0
C      1  0.5949440000000  0.5441260000000  0.5101510000000 1.0
C      1  0.4374260000000  0.4666130000000  0.5043250000000 1.0
C      1  0.4251310000000  0.5479120000000  0.4946370000000 1.0
C      1  0.4646490000000  0.5013690000000  0.4113740000000 1.0
C      1  0.5274860000000  0.4794270000000  0.4221050000000 1.0
C      1  0.5401900000000  0.5118520000000  0.5751800000000 1.0
C      1  0.5598130000000  0.4276280000000  0.4981540000000 1.0
C      1  0.5044330000000  0.5585240000000  0.4141860000000 1.0
C      1  0.4155070000000  0.5062450000000  0.5656010000000 1.0
C      1  0.5575920000000  0.5808280000000  0.4989060000000 1.0
C      1  0.4317370000000  0.5806160000000  0.5109880000000 1.0
C      1  0.4317820000000  0.4255310000000  0.4971390000000 1.0
C      1  0.5023030000000  0.4338320000000  0.5693930000000 1.0
C      1  0.4844500000000  0.4253050000000  0.4104820000000 1.0
C      1  0.4911650000000  0.5690430000000  0.5860330000000 1.0
C      1  0.4193240000000  0.4972010000000  0.4404100000000 1.0
C      1  0.5717790000000  0.4973500000000  0.5623740000000 1.0
C      1  0.5881280000000  0.5082850000000  0.4368130000000 1.0
C      1  0.5692170000000  0.5032110000000  0.4236080000000 1.0
C      1  0.5054430000000  0.4144990000000  0.5592140000000 1.0
C      1  0.4145490000000  0.5681960000000  0.5088040000000 1.0
C      1  0.5607890000000  0.4972100000000  0.5801970000000 1.0
C      1  0.4328640000000  0.5078370000000  0.5776460000000 1.0
C      1  0.4375010000000  0.4945930000000  0.4298090000000 1.0
C      1  0.4960680000000  0.5676410000000  0.4415800000000 1.0
C      1  0.4843240000000  0.4108110000000  0.4290040000000 1.0
C      1  0.4904950000000  0.5864420000000  0.5720760000000 1.0
C      1  0.4132840000000  0.4367190000000  0.4971490000000 1.0
C      1  0.5702880000000  0.5638030000000  0.4986620000000 1.0
C      1  0.5777010000000  0.4444630000000  0.4992450000000 1.0
C      1  0.5690330000000  0.4371840000000  0.4921930000000 1.0
C      1  0.4182670000000  0.5816350000000  0.5062410000000 1.0
C      1  0.4953040000000  0.5674060000000  0.4082460000000 1.0
C      1  0.5027410000000  0.4193620000000  0.5724950000000 1.0
C      1  0.5830240000000  0.5023280000000  0.4269190000000 1.0
C      1  0.4193300000000  0.5028730000000  0.5786880000000 1.0
C      1  0.4850430000000  0.4113330000000  0.4152000000000 1.0
C      1  0.4922790000000  0.5833740000000  0.5859830000000 1.0
C      1  0.4246770000000  0.5014830000000  0.4280750000000 1.0
C      1  0.5736120000000  0.5014980000000  0.5761990000000 1.0
C      1  0.5704110000000  0.5775720000000  0.5034820000000 1.0
C      1  0.4175210000000  0.4232070000000  0.4993060000000 1.0
END
