TITL C-731043-5360-25 14.2315364355821 1000000 -3807.96659869369 0 0 540 (C2) n - 1
REM
REM in /scratch/bkarasulu/Only-C240/Try5-OnlyC540
REM
REM
REM
REM
REM
REM ./C.cell (44946988efc617adc4c7d3233e6f571a)
REM
REM compiler GCC version 9.2.1 20190827 (Red Hat 9.2.1-1)
REM options -cpp -mtune=generic -march=x86-64 -g -O0 -fpre-include=/usr/include/finclude/math-vector-fortran.h
REM seed -1830444808 1256583271 534394897 843852028 -1772654187 862481432 -1628601632 863898705 1873609596 -427295891 1562017744 -39934012 -803711368 -672082462 -1571246446 832941987 -2081749551 581364965 -1233529660 1228035772 -777735326 1622305340 -510027050 84510029 -1511224337 -2117190068 -1910534080 1406225874 991352869 1116149849 854594845 -1752656799 1357478658
REM
CELL 1.54180  100.00000  100.00000  100.00000   90.00000   90.00000   90.00000
LATT -1
SFAC C  
C      1  0.5340620000000  0.5272580000000  0.5939340000000 1.0
C      1  0.5940220000000  0.5337960000000  0.5282190000000 1.0
C      1  0.5288810000000  0.5932990000000  0.5344860000000 1.0
C      1  0.4657380000000  0.5265420000000  0.4065040000000 1.0
C      1  0.5342520000000  0.4734720000000  0.4064970000000 1.0
C      1  0.4659480000000  0.4727280000000  0.5939340000000 1.0
C      1  0.4058950000000  0.5325970000000  0.4720400000000 1.0
C      1  0.5941020000000  0.4674070000000  0.4720250000000 1.0
C      1  0.4059810000000  0.4662000000000  0.5282230000000 1.0
C      1  0.4758510000000  0.5899130000000  0.4619930000000 1.0
C      1  0.5241450000000  0.4100930000000  0.4619770000000 1.0
C      1  0.4711220000000  0.4066950000000  0.5344750000000 1.0
C      1  0.5903750000000  0.5238590000000  0.5372450000000 1.0
C      1  0.5242480000000  0.5365290000000  0.5905270000000 1.0
C      1  0.5383700000000  0.5904420000000  0.5247090000000 1.0
C      1  0.4086190000000  0.5224690000000  0.4628690000000 1.0
C      1  0.4096290000000  0.4761360000000  0.5372510000000 1.0
C      1  0.5913770000000  0.4775370000000  0.4628570000000 1.0
C      1  0.4746340000000  0.5366770000000  0.4103540000000 1.0
C      1  0.4757610000000  0.4634570000000  0.5905240000000 1.0
C      1  0.5253570000000  0.4633360000000  0.4103460000000 1.0
C      1  0.4682290000000  0.5860260000000  0.4737940000000 1.0
C      1  0.4616330000000  0.4095540000000  0.5246990000000 1.0
C      1  0.5317690000000  0.4139780000000  0.4737780000000 1.0
C      1  0.5799480000000  0.5678630000000  0.4144530000000 1.0
C      1  0.4141240000000  0.5804200000000  0.5652070000000 1.0
C      1  0.5662730000000  0.4132920000000  0.5794300000000 1.0
C      1  0.4197950000000  0.5667960000000  0.5854170000000 1.0
C      1  0.5802130000000  0.4331910000000  0.5853990000000 1.0
C      1  0.4200440000000  0.4321500000000  0.4144510000000 1.0
C      1  0.5871630000000  0.5815220000000  0.4343630000000 1.0
C      1  0.4128300000000  0.4184880000000  0.4343590000000 1.0
C      1  0.5858830000000  0.4195700000000  0.5651860000000 1.0
C      1  0.4330410000000  0.4120350000000  0.4211730000000 1.0
C      1  0.5669510000000  0.5879770000000  0.4211790000000 1.0
C      1  0.4337350000000  0.5866960000000  0.5794490000000 1.0
C      1  0.4112310000000  0.5698200000000  0.5735660000000 1.0
C      1  0.5694500000000  0.5765430000000  0.4118870000000 1.0
C      1  0.5743720000000  0.4106600000000  0.5685540000000 1.0
C      1  0.5889440000000  0.5706390000000  0.4260190000000 1.0
C      1  0.5887760000000  0.4301690000000  0.5735460000000 1.0
C      1  0.4110490000000  0.4293720000000  0.4260170000000 1.0
C      1  0.4304080000000  0.5751510000000  0.5883090000000 1.0
C      1  0.4305410000000  0.4234710000000  0.4118830000000 1.0
C      1  0.5696010000000  0.4248360000000  0.5882910000000 1.0
C      1  0.4244650000000  0.4093900000000  0.4315960000000 1.0
C      1  0.4256350000000  0.5893300000000  0.5685750000000 1.0
C      1  0.5755280000000  0.5906200000000  0.4316020000000 1.0
C      1  0.4150770000000  0.4422930000000  0.4312430000000 1.0
C      1  0.4290190000000  0.4124750000000  0.4450170000000 1.0
C      1  0.4438980000000  0.4283970000000  0.4149400000000 1.0
C      1  0.5854330000000  0.4433810000000  0.5686280000000 1.0
C      1  0.4145740000000  0.5566090000000  0.5686450000000 1.0
C      1  0.5849160000000  0.5577170000000  0.4312430000000 1.0
C      1  0.5689590000000  0.4139220000000  0.5555200000000 1.0
C      1  0.4310470000000  0.5860690000000  0.5555400000000 1.0
C      1  0.5709760000000  0.5875340000000  0.4450230000000 1.0
C      1  0.5563390000000  0.4299640000000  0.5854390000000 1.0
C      1  0.4436700000000  0.5700230000000  0.5854550000000 1.0
C      1  0.5560940000000  0.5716160000000  0.4149450000000 1.0
C      1  0.4233070000000  0.4454630000000  0.4198170000000 1.0
C      1  0.4463570000000  0.4173680000000  0.4238340000000 1.0
C      1  0.4175520000000  0.4207990000000  0.4480680000000 1.0
C      1  0.5775680000000  0.4467460000000  0.5803360000000 1.0
C      1  0.5766850000000  0.5545500000000  0.4198180000000 1.0
C      1  0.4224400000000  0.5532420000000  0.5803520000000 1.0
C      1  0.5527080000000  0.4185500000000  0.5772680000000 1.0
C      1  0.5536350000000  0.5826440000000  0.4238410000000 1.0
C      1  0.4473000000000  0.5814380000000  0.5772860000000 1.0
C      1  0.5802780000000  0.4222070000000  0.5518580000000 1.0
C      1  0.5824420000000  0.5792090000000  0.4480720000000 1.0
C      1  0.4197270000000  0.5777850000000  0.5518780000000 1.0
C      1  0.5105480000000  0.5847720000000  0.4679210000000 1.0
C      1  0.4682070000000  0.5117190000000  0.5901650000000 1.0
C      1  0.5885130000000  0.4684460000000  0.5109700000000 1.0
C      1  0.4900090000000  0.5888530000000  0.5322100000000 1.0
C      1  0.5099940000000  0.4111420000000  0.5321960000000 1.0
C      1  0.4894490000000  0.4152330000000  0.4679090000000 1.0
C      1  0.5312830000000  0.5122870000000  0.4117760000000 1.0
C      1  0.4687080000000  0.4877260000000  0.4117770000000 1.0
C      1  0.5318020000000  0.4882670000000  0.5901600000000 1.0
C      1  0.4091320000000  0.4674760000000  0.4891220000000 1.0
C      1  0.5908670000000  0.5325250000000  0.4891180000000 1.0
C      1  0.4114880000000  0.5315520000000  0.5109840000000 1.0
C      1  0.4716370000000  0.5790280000000  0.5148900000000 1.0
C      1  0.5799260000000  0.5159680000000  0.4707170000000 1.0
C      1  0.5145980000000  0.4699570000000  0.5804100000000 1.0
C      1  0.5325050000000  0.5806800000000  0.4858000000000 1.0
C      1  0.5283640000000  0.4209700000000  0.5148750000000 1.0
C      1  0.4674940000000  0.4193220000000  0.4857910000000 1.0
C      1  0.4203930000000  0.5146200000000  0.5298840000000 1.0
C      1  0.4200710000000  0.4840370000000  0.4707220000000 1.0
C      1  0.5796100000000  0.4853750000000  0.5298740000000 1.0
C      1  0.4863890000000  0.4698650000000  0.4204340000000 1.0
C      1  0.4854100000000  0.5300310000000  0.5804160000000 1.0
C      1  0.5136030000000  0.5301470000000  0.4204370000000 1.0
C      1  0.4478390000000  0.4566530000000  0.5811760000000 1.0
C      1  0.5808930000000  0.4503000000000  0.4552940000000 1.0
C      1  0.4564720000000  0.5765010000000  0.4459810000000 1.0
C      1  0.5550470000000  0.4591530000000  0.4165380000000 1.0
C      1  0.4449440000000  0.5408590000000  0.4165500000000 1.0
C      1  0.5521690000000  0.5433350000000  0.5811770000000 1.0
C      1  0.4185820000000  0.4483120000000  0.5444760000000 1.0
C      1  0.5814230000000  0.5516810000000  0.5444750000000 1.0
C      1  0.4191030000000  0.5497070000000  0.4553100000000 1.0
C      1  0.5447180000000  0.5804810000000  0.5525250000000 1.0
C      1  0.4552870000000  0.4195110000000  0.5525180000000 1.0
C      1  0.5435220000000  0.4235070000000  0.4459660000000 1.0
C      1  0.5802420000000  0.4610350000000  0.4445620000000 1.0
C      1  0.4583550000000  0.4459760000000  0.5793410000000 1.0
C      1  0.4477100000000  0.5747040000000  0.4580110000000 1.0
C      1  0.4206720000000  0.4589910000000  0.5549500000000 1.0
C      1  0.4197520000000  0.5389740000000  0.4445760000000 1.0
C      1  0.5793340000000  0.5410010000000  0.5549480000000 1.0
C      1  0.5466750000000  0.4472580000000  0.4176210000000 1.0
C      1  0.5416530000000  0.5540120000000  0.5793450000000 1.0
C      1  0.4533160000000  0.5527550000000  0.4176340000000 1.0
C      1  0.5555320000000  0.5789240000000  0.5420770000000 1.0
C      1  0.5522860000000  0.4253030000000  0.4579950000000 1.0
C      1  0.4444720000000  0.4210690000000  0.5420710000000 1.0
C      1  0.4293120000000  0.5757220000000  0.4752060000000 1.0
C      1  0.4758510000000  0.4275510000000  0.5786920000000 1.0
C      1  0.5806370000000  0.4792950000000  0.4264900000000 1.0
C      1  0.5741460000000  0.5786180000000  0.5246760000000 1.0
C      1  0.4258560000000  0.4213780000000  0.5246710000000 1.0
C      1  0.5706850000000  0.4242820000000  0.4751870000000 1.0
C      1  0.5371170000000  0.4261200000000  0.4125910000000 1.0
C      1  0.4628740000000  0.5738930000000  0.4126050000000 1.0
C      1  0.5241570000000  0.5724380000000  0.5787010000000 1.0
C      1  0.4214350000000  0.4767820000000  0.5730690000000 1.0
C      1  0.5785730000000  0.5232070000000  0.5730640000000 1.0
C      1  0.4193550000000  0.5207160000000  0.4265010000000 1.0
C      1  0.4697240000000  0.5782950000000  0.4244610000000 1.0
C      1  0.5820430000000  0.4328760000000  0.4740290000000 1.0
C      1  0.4308510000000  0.4754830000000  0.5837100000000 1.0
C      1  0.5256240000000  0.5830900000000  0.5693280000000 1.0
C      1  0.5302690000000  0.4217170000000  0.4244460000000 1.0
C      1  0.4743830000000  0.4168990000000  0.5693180000000 1.0
C      1  0.4153980000000  0.4310080000000  0.5259730000000 1.0
C      1  0.4179540000000  0.5671280000000  0.4740480000000 1.0
C      1  0.5846050000000  0.5689880000000  0.5259750000000 1.0
C      1  0.5714580000000  0.4780720000000  0.4155610000000 1.0
C      1  0.5691570000000  0.5245040000000  0.5837060000000 1.0
C      1  0.4285330000000  0.5219410000000  0.4155710000000 1.0
C      1  0.5792100000000  0.4631090000000  0.5198770000000 1.0
C      1  0.5217300000000  0.5775990000000  0.4636150000000 1.0
C      1  0.4628820000000  0.5207890000000  0.5810790000000 1.0
C      1  0.4179950000000  0.4617060000000  0.4801540000000 1.0
C      1  0.5820040000000  0.5382970000000  0.4801510000000 1.0
C      1  0.4207930000000  0.5368880000000  0.5198910000000 1.0
C      1  0.4804610000000  0.5802270000000  0.5374800000000 1.0
C      1  0.5195430000000  0.4197680000000  0.5374660000000 1.0
C      1  0.4782660000000  0.4224060000000  0.4636060000000 1.0
C      1  0.5363140000000  0.5222130000000  0.4202940000000 1.0
C      1  0.4636780000000  0.4777990000000  0.4202940000000 1.0
C      1  0.5371260000000  0.4791990000000  0.5810720000000 1.0
C      1  0.5277060000000  0.4695960000000  0.5763570000000 1.0
C      1  0.4708800000000  0.5754320000000  0.5280790000000 1.0
C      1  0.5762160000000  0.5292280000000  0.4707670000000 1.0
C      1  0.4733180000000  0.4681070000000  0.4241800000000 1.0
C      1  0.4723010000000  0.5303920000000  0.5763640000000 1.0
C      1  0.5266750000000  0.5319050000000  0.4241820000000 1.0
C      1  0.5321080000000  0.5755170000000  0.4732450000000 1.0
C      1  0.5291220000000  0.4245640000000  0.5280640000000 1.0
C      1  0.4678890000000  0.4244870000000  0.4732360000000 1.0
C      1  0.4249630000000  0.5275680000000  0.5298290000000 1.0
C      1  0.4237810000000  0.4707770000000  0.4707700000000 1.0
C      1  0.5750400000000  0.4724280000000  0.5298180000000 1.0
C      1  0.4351740000000  0.5705560000000  0.4627560000000 1.0
C      1  0.4631840000000  0.4338470000000  0.5742640000000 1.0
C      1  0.5761400000000  0.4663800000000  0.4322360000000 1.0
C      1  0.5676540000000  0.5739270000000  0.5371460000000 1.0
C      1  0.4323500000000  0.4260680000000  0.5371420000000 1.0
C      1  0.5648220000000  0.4294490000000  0.4627390000000 1.0
C      1  0.5463600000000  0.4337350000000  0.4211000000000 1.0
C      1  0.4536320000000  0.5662770000000  0.4211150000000 1.0
C      1  0.5368230000000  0.5661420000000  0.5742700000000 1.0
C      1  0.4258540000000  0.4640250000000  0.5669510000000 1.0
C      1  0.5741530000000  0.5359650000000  0.5669490000000 1.0
C      1  0.4238530000000  0.5336310000000  0.4322490000000 1.0
C      1  0.4583270000000  0.5739470000000  0.4326120000000 1.0
C      1  0.5762850000000  0.4386900000000  0.4615780000000 1.0
C      1  0.4359420000000  0.4629390000000  0.5775510000000 1.0
C      1  0.5381430000000  0.5767840000000  0.5642570000000 1.0
C      1  0.5416660000000  0.4260630000000  0.4325960000000 1.0
C      1  0.4618640000000  0.4232060000000  0.5642490000000 1.0
C      1  0.4219090000000  0.4363000000000  0.5382520000000 1.0
C      1  0.4237120000000  0.5613160000000  0.4615950000000 1.0
C      1  0.5780950000000  0.5636940000000  0.5382540000000 1.0
C      1  0.5666090000000  0.4653790000000  0.4210160000000 1.0
C      1  0.5640660000000  0.5370500000000  0.5775500000000 1.0
C      1  0.4333820000000  0.5346330000000  0.4210280000000 1.0
C      1  0.5175620000000  0.5068250000000  0.4125130000000 1.0
C      1  0.4119500000000  0.5175350000000  0.5063390000000 1.0
C      1  0.5048230000000  0.4123860000000  0.5185220000000 1.0
C      1  0.4820640000000  0.5066460000000  0.5890740000000 1.0
C      1  0.5179450000000  0.4933410000000  0.5890710000000 1.0
C      1  0.4824290000000  0.4931880000000  0.4125140000000 1.0
C      1  0.5891660000000  0.5185960000000  0.4939690000000 1.0
C      1  0.4108330000000  0.4814040000000  0.4939750000000 1.0
C      1  0.5880510000000  0.4824640000000  0.5063270000000 1.0
C      1  0.4911910000000  0.4134960000000  0.4828330000000 1.0
C      1  0.5088070000000  0.5865070000000  0.4828450000000 1.0
C      1  0.4951790000000  0.5876110000000  0.5185360000000 1.0
C      1  0.4150670000000  0.5079430000000  0.5172890000000 1.0
C      1  0.5074510000000  0.5175230000000  0.4155920000000 1.0
C      1  0.5155830000000  0.4160090000000  0.5088970000000 1.0
C      1  0.5854770000000  0.5091410000000  0.4830890000000 1.0
C      1  0.5849350000000  0.4920550000000  0.5172790000000 1.0
C      1  0.4145210000000  0.4908620000000  0.4830960000000 1.0
C      1  0.4918710000000  0.5173210000000  0.5856820000000 1.0
C      1  0.4925410000000  0.4824900000000  0.4155900000000 1.0
C      1  0.5081380000000  0.4826660000000  0.5856780000000 1.0
C      1  0.4802440000000  0.4152310000000  0.4922690000000 1.0
C      1  0.4844180000000  0.5839900000000  0.5089110000000 1.0
C      1  0.5197550000000  0.5847700000000  0.4922800000000 1.0
C      1  0.5901170000000  0.4684180000000  0.4519430000000 1.0
C      1  0.4577690000000  0.5811890000000  0.4656600000000 1.0
C      1  0.4663990000000  0.4527940000000  0.5891580000000 1.0
C      1  0.4108090000000  0.4670010000000  0.5481370000000 1.0
C      1  0.5891950000000  0.5329920000000  0.5481330000000 1.0
C      1  0.4098780000000  0.5315900000000  0.4519570000000 1.0
C      1  0.5488930000000  0.5890220000000  0.5342310000000 1.0
C      1  0.4511100000000  0.4109730000000  0.5342230000000 1.0
C      1  0.5422280000000  0.4188160000000  0.4656430000000 1.0
C      1  0.5357940000000  0.4536620000000  0.4105690000000 1.0
C      1  0.4641960000000  0.5463510000000  0.4105800000000 1.0
C      1  0.5336100000000  0.5471930000000  0.5891620000000 1.0
C      1  0.4557980000000  0.4629200000000  0.5915070000000 1.0
C      1  0.4661980000000  0.5837170000000  0.4535130000000 1.0
C      1  0.5915540000000  0.4575610000000  0.4619290000000 1.0
C      1  0.5452620000000  0.4648330000000  0.4077820000000 1.0
C      1  0.5442110000000  0.5370660000000  0.5915080000000 1.0
C      1  0.4547290000000  0.5351810000000  0.4077910000000 1.0
C      1  0.5385860000000  0.5910190000000  0.5447530000000 1.0
C      1  0.5337970000000  0.4162900000000  0.4534970000000 1.0
C      1  0.4614190000000  0.4089740000000  0.5447430000000 1.0
C      1  0.4082010000000  0.4562300000000  0.5382480000000 1.0
C      1  0.4084420000000  0.5424450000000  0.4619450000000 1.0
C      1  0.5918030000000  0.5437640000000  0.5382450000000 1.0
C      1  0.4253710000000  0.4985520000000  0.4106370000000 1.0
C      1  0.4087550000000  0.4256870000000  0.5031330000000 1.0
C      1  0.4953870000000  0.4105620000000  0.4240160000000 1.0
C      1  0.5739990000000  0.5013270000000  0.5895660000000 1.0
C      1  0.4260100000000  0.4986600000000  0.5895730000000 1.0
C      1  0.5746200000000  0.5014620000000  0.4106300000000 1.0
C      1  0.5873230000000  0.4268450000000  0.4970210000000 1.0
C      1  0.4126760000000  0.5731550000000  0.4970410000000 1.0
C      1  0.5912450000000  0.5743120000000  0.5031350000000 1.0
C      1  0.4975380000000  0.4107100000000  0.5741990000000 1.0
C      1  0.5024690000000  0.5892790000000  0.5742120000000 1.0
C      1  0.5046050000000  0.5894490000000  0.4240290000000 1.0
C      1  0.4174960000000  0.4968740000000  0.4218720000000 1.0
C      1  0.4945450000000  0.4215500000000  0.4154260000000 1.0
C      1  0.4196650000000  0.4174740000000  0.5014170000000 1.0
C      1  0.5818690000000  0.4996470000000  0.5784010000000 1.0
C      1  0.5824960000000  0.5031380000000  0.4218640000000 1.0
C      1  0.4181390000000  0.5003410000000  0.5784090000000 1.0
C      1  0.4993670000000  0.4218300000000  0.5820860000000 1.0
C      1  0.5054460000000  0.5784630000000  0.4154370000000 1.0
C      1  0.5006410000000  0.5781570000000  0.5820970000000 1.0
C      1  0.5757550000000  0.4194720000000  0.4983720000000 1.0
C      1  0.5803350000000  0.5825260000000  0.5014210000000 1.0
C      1  0.4242450000000  0.5805280000000  0.4983920000000 1.0
C      1  0.5456160000000  0.5828480000000  0.4908780000000 1.0
C      1  0.4908430000000  0.5431010000000  0.5812520000000 1.0
C      1  0.5807900000000  0.4903980000000  0.5431180000000 1.0
C      1  0.4591950000000  0.5796510000000  0.5083180000000 1.0
C      1  0.5408060000000  0.4203480000000  0.5083020000000 1.0
C      1  0.4543830000000  0.4171530000000  0.4908700000000 1.0
C      1  0.5082900000000  0.5429680000000  0.4194210000000 1.0
C      1  0.4917020000000  0.4570440000000  0.4194160000000 1.0
C      1  0.5091650000000  0.4568870000000  0.5812450000000 1.0
C      1  0.4193340000000  0.4890960000000  0.4575040000000 1.0
C      1  0.5806620000000  0.5109100000000  0.4574970000000 1.0
C      1  0.4192140000000  0.5095960000000  0.5431280000000 1.0
C      1  0.4948070000000  0.5980110000000  0.5416310000000 1.0
C      1  0.5998400000000  0.5417820000000  0.4945490000000 1.0
C      1  0.5414700000000  0.4933670000000  0.5988660000000 1.0
C      1  0.5009180000000  0.5896230000000  0.4582200000000 1.0
C      1  0.5051970000000  0.4019830000000  0.5416150000000 1.0
C      1  0.4990780000000  0.4103840000000  0.4582060000000 1.0
C      1  0.4027070000000  0.5411990000000  0.5059930000000 1.0
C      1  0.4001590000000  0.4582190000000  0.4945530000000 1.0
C      1  0.5972940000000  0.4588000000000  0.5059770000000 1.0
C      1  0.4589440000000  0.4925570000000  0.4030540000000 1.0
C      1  0.4585400000000  0.5066180000000  0.5988710000000 1.0
C      1  0.5410460000000  0.5074580000000  0.4030510000000 1.0
C      1  0.5453670000000  0.5872500000000  0.5043440000000 1.0
C      1  0.5042180000000  0.5431910000000  0.5859530000000 1.0
C      1  0.5856390000000  0.5037110000000  0.5434600000000 1.0
C      1  0.4595320000000  0.5831490000000  0.4944920000000 1.0
C      1  0.5404680000000  0.4168520000000  0.4944760000000 1.0
C      1  0.4546330000000  0.4127490000000  0.5043350000000 1.0
C      1  0.4947200000000  0.5442540000000  0.4153410000000 1.0
C      1  0.5052720000000  0.4557590000000  0.4153330000000 1.0
C      1  0.4957910000000  0.4567960000000  0.5859470000000 1.0
C      1  0.4138090000000  0.5021650000000  0.4568190000000 1.0
C      1  0.5861870000000  0.4978420000000  0.4568100000000 1.0
C      1  0.4143660000000  0.4962820000000  0.5434680000000 1.0
C      1  0.5089000000000  0.5994580000000  0.5413110000000 1.0
C      1  0.6009080000000  0.5410550000000  0.5086720000000 1.0
C      1  0.5411110000000  0.5074730000000  0.6002670000000 1.0
C      1  0.4889580000000  0.5953570000000  0.4636070000000 1.0
C      1  0.4911050000000  0.4005360000000  0.5412970000000 1.0
C      1  0.5110380000000  0.4046480000000  0.4635920000000 1.0
C      1  0.4007950000000  0.5404750000000  0.4919630000000 1.0
C      1  0.3990930000000  0.4589440000000  0.5086760000000 1.0
C      1  0.5992050000000  0.4595260000000  0.4919470000000 1.0
C      1  0.4586680000000  0.5065610000000  0.4011140000000 1.0
C      1  0.4588990000000  0.4925120000000  0.6002700000000 1.0
C      1  0.5413220000000  0.4934540000000  0.4011090000000 1.0
C      1  0.4087140000000  0.4825760000000  0.5087250000000 1.0
C      1  0.5047750000000  0.4085580000000  0.4862020000000 1.0
C      1  0.4827030000000  0.5080980000000  0.4099810000000 1.0
C      1  0.5908090000000  0.4836020000000  0.4915940000000 1.0
C      1  0.4091900000000  0.5164000000000  0.4916060000000 1.0
C      1  0.5912870000000  0.5174230000000  0.5087180000000 1.0
C      1  0.4900590000000  0.4097010000000  0.5175190000000 1.0
C      1  0.5099430000000  0.5902960000000  0.5175320000000 1.0
C      1  0.4952240000000  0.5914440000000  0.4862160000000 1.0
C      1  0.5171770000000  0.5081300000000  0.5913660000000 1.0
C      1  0.4828320000000  0.4918560000000  0.5913670000000 1.0
C      1  0.5172870000000  0.4919160000000  0.4099780000000 1.0
C      1  0.5071150000000  0.4813760000000  0.4128770000000 1.0
C      1  0.4797430000000  0.4120900000000  0.5069020000000 1.0
C      1  0.4117440000000  0.5054910000000  0.4817790000000 1.0
C      1  0.4934540000000  0.4818150000000  0.5883930000000 1.0
C      1  0.4928760000000  0.5186380000000  0.4128810000000 1.0
C      1  0.5065550000000  0.5181710000000  0.5883950000000 1.0
C      1  0.5158960000000  0.4132060000000  0.4947500000000 1.0
C      1  0.5202580000000  0.5879090000000  0.5069130000000 1.0
C      1  0.4841040000000  0.5867950000000  0.4947650000000 1.0
C      1  0.5880050000000  0.5066360000000  0.5184910000000 1.0
C      1  0.5882550000000  0.4945120000000  0.4817690000000 1.0
C      1  0.4119970000000  0.4933620000000  0.5184990000000 1.0
C      1  0.5577440000000  0.5834740000000  0.4475780000000 1.0
C      1  0.4460560000000  0.5565970000000  0.5825250000000 1.0
C      1  0.5820060000000  0.4458110000000  0.5553230000000 1.0
C      1  0.4444930000000  0.5829140000000  0.5535750000000 1.0
C      1  0.5555120000000  0.4170780000000  0.5535570000000 1.0
C      1  0.4422500000000  0.4165330000000  0.4475720000000 1.0
C      1  0.5530410000000  0.5582460000000  0.4175870000000 1.0
C      1  0.4469510000000  0.4417670000000  0.4175840000000 1.0
C      1  0.5539520000000  0.4433910000000  0.5825110000000 1.0
C      1  0.4179260000000  0.4444070000000  0.4446770000000 1.0
C      1  0.5820690000000  0.5556010000000  0.4446770000000 1.0
C      1  0.4180000000000  0.5541810000000  0.5553390000000 1.0
C      1  0.4540370000000  0.5819870000000  0.5649410000000 1.0
C      1  0.5827250000000  0.5665800000000  0.4545000000000 1.0
C      1  0.5650820000000  0.4531500000000  0.5813990000000 1.0
C      1  0.5482180000000  0.5815070000000  0.4367800000000 1.0
C      1  0.5459700000000  0.4180030000000  0.5649240000000 1.0
C      1  0.4517760000000  0.4185030000000  0.4367730000000 1.0
C      1  0.4193470000000  0.5652150000000  0.5455310000000 1.0
C      1  0.4172710000000  0.4334260000000  0.4544980000000 1.0
C      1  0.5806580000000  0.4347780000000  0.5455130000000 1.0
C      1  0.4359570000000  0.4516050000000  0.4188970000000 1.0
C      1  0.4349260000000  0.5468380000000  0.5814120000000 1.0
C      1  0.5640340000000  0.5484070000000  0.4188970000000 1.0
C      1  0.4306800000000  0.5778770000000  0.5113230000000 1.0
C      1  0.5122800000000  0.4282810000000  0.5790430000000 1.0
C      1  0.5784820000000  0.5153940000000  0.4290570000000 1.0
C      1  0.5741020000000  0.5800630000000  0.4883440000000 1.0
C      1  0.4258970000000  0.4199390000000  0.4883390000000 1.0
C      1  0.5693210000000  0.4221220000000  0.5113040000000 1.0
C      1  0.4831310000000  0.4303250000000  0.4199070000000 1.0
C      1  0.5168600000000  0.5696870000000  0.4199160000000 1.0
C      1  0.4877280000000  0.5717070000000  0.5790560000000 1.0
C      1  0.4212660000000  0.5131330000000  0.5717700000000 1.0
C      1  0.5787420000000  0.4868560000000  0.5717600000000 1.0
C      1  0.4215100000000  0.4846170000000  0.4290630000000 1.0
C      1  0.5134030000000  0.5872510000000  0.4351120000000 1.0
C      1  0.5893620000000  0.4335290000000  0.5093890000000 1.0
C      1  0.4332330000000  0.5107640000000  0.5913810000000 1.0
C      1  0.4903520000000  0.5912150000000  0.5670090000000 1.0
C      1  0.4865900000000  0.4127580000000  0.4351010000000 1.0
C      1  0.5096540000000  0.4087750000000  0.5669940000000 1.0
C      1  0.4067950000000  0.4326350000000  0.4908690000000 1.0
C      1  0.4106390000000  0.5664700000000  0.5094080000000 1.0
C      1  0.5932040000000  0.5673660000000  0.4908700000000 1.0
C      1  0.5663630000000  0.5129670000000  0.4095480000000 1.0
C      1  0.5667770000000  0.4892220000000  0.5913730000000 1.0
C      1  0.4336280000000  0.4870470000000  0.4095530000000 1.0
C      1  0.5664710000000  0.5134260000000  0.5922600000000 1.0
C      1  0.5934240000000  0.5664150000000  0.5150770000000 1.0
C      1  0.5146340000000  0.5917850000000  0.5666880000000 1.0
C      1  0.4321910000000  0.5109040000000  0.4075250000000 1.0
C      1  0.5678000000000  0.4891100000000  0.4075160000000 1.0
C      1  0.4335390000000  0.4865600000000  0.5922650000000 1.0
C      1  0.4093990000000  0.5653620000000  0.4852530000000 1.0
C      1  0.5905990000000  0.4346400000000  0.4852340000000 1.0
C      1  0.4065770000000  0.4335830000000  0.5150760000000 1.0
C      1  0.4835110000000  0.5804980000000  0.4249440000000 1.0
C      1  0.5164810000000  0.4195140000000  0.4249310000000 1.0
C      1  0.4853730000000  0.4082050000000  0.5666760000000 1.0
C      1  0.5843890000000  0.5106530000000  0.5696710000000 1.0
C      1  0.5115520000000  0.5692800000000  0.5845530000000 1.0
C      1  0.5712940000000  0.5849420000000  0.5122330000000 1.0
C      1  0.4143070000000  0.5079830000000  0.4302810000000 1.0
C      1  0.4156180000000  0.4893360000000  0.5696780000000 1.0
C      1  0.5856860000000  0.4920270000000  0.4302720000000 1.0
C      1  0.4922650000000  0.5720400000000  0.4153800000000 1.0
C      1  0.4884560000000  0.4307070000000  0.5845440000000 1.0
C      1  0.5077260000000  0.4279730000000  0.4153690000000 1.0
C      1  0.4331230000000  0.5820000000000  0.4873610000000 1.0
C      1  0.4287070000000  0.4150560000000  0.5122280000000 1.0
C      1  0.5668760000000  0.4180020000000  0.4873420000000 1.0
C      1  0.6005400000000  0.5561970000000  0.4948680000000 1.0
C      1  0.4946130000000  0.5987100000000  0.5560520000000 1.0
C      1  0.5559090000000  0.4933320000000  0.5990890000000 1.0
C      1  0.4026030000000  0.5556550000000  0.5057210000000 1.0
C      1  0.5973970000000  0.4443440000000  0.5057030000000 1.0
C      1  0.3994600000000  0.4438030000000  0.4948700000000 1.0
C      1  0.5020590000000  0.5883610000000  0.4442300000000 1.0
C      1  0.4979350000000  0.4116480000000  0.4442170000000 1.0
C      1  0.5053930000000  0.4012810000000  0.5560360000000 1.0
C      1  0.4445760000000  0.4916710000000  0.4021610000000 1.0
C      1  0.5554140000000  0.5083440000000  0.4021570000000 1.0
C      1  0.4441010000000  0.5066530000000  0.5990950000000 1.0
C      1  0.4901730000000  0.5579720000000  0.5820740000000 1.0
C      1  0.5604200000000  0.5834460000000  0.4905790000000 1.0
C      1  0.5816860000000  0.4894670000000  0.5580200000000 1.0
C      1  0.5107340000000  0.5570460000000  0.4179990000000 1.0
C      1  0.5098350000000  0.4420160000000  0.5820640000000 1.0
C      1  0.4892580000000  0.4429670000000  0.4179920000000 1.0
C      1  0.4444590000000  0.5803600000000  0.5086280000000 1.0
C      1  0.4395790000000  0.4165560000000  0.4905730000000 1.0
C      1  0.5555420000000  0.4196390000000  0.5086100000000 1.0
C      1  0.4183950000000  0.4876220000000  0.4426940000000 1.0
C      1  0.4183200000000  0.5105240000000  0.5580300000000 1.0
C      1  0.5815990000000  0.5123870000000  0.4426870000000 1.0
C      1  0.5392340000000  0.4245850000000  0.5383860000000 1.0
C      1  0.5368650000000  0.5424160000000  0.4238470000000 1.0
C      1  0.4253690000000  0.5382950000000  0.5395620000000 1.0
C      1  0.4578880000000  0.4252530000000  0.4629070000000 1.0
C      1  0.5421080000000  0.5747530000000  0.4629140000000 1.0
C      1  0.4607690000000  0.5754090000000  0.5384010000000 1.0
C      1  0.4617860000000  0.5403670000000  0.5759010000000 1.0
C      1  0.5382220000000  0.4596220000000  0.5758910000000 1.0
C      1  0.4631280000000  0.4575960000000  0.4238440000000 1.0
C      1  0.5757980000000  0.5398420000000  0.4609000000000 1.0
C      1  0.4241980000000  0.4601640000000  0.4609020000000 1.0
C      1  0.5746350000000  0.4616990000000  0.5395480000000 1.0
C      1  0.5290430000000  0.4207650000000  0.5483470000000 1.0
C      1  0.4222250000000  0.5480650000000  0.5290800000000 1.0
C      1  0.5469760000000  0.5319960000000  0.4211430000000 1.0
C      1  0.4684400000000  0.4241770000000  0.4528980000000 1.0
C      1  0.4709620000000  0.5792280000000  0.5483620000000 1.0
C      1  0.5315550000000  0.5758300000000  0.4529060000000 1.0
C      1  0.5807520000000  0.5494130000000  0.4709280000000 1.0
C      1  0.5777780000000  0.4519310000000  0.5290650000000 1.0
C      1  0.4192450000000  0.4505920000000  0.4709280000000 1.0
C      1  0.4518990000000  0.5301600000000  0.5796120000000 1.0
C      1  0.4530150000000  0.4680160000000  0.4211430000000 1.0
C      1  0.5481090000000  0.4698280000000  0.5796030000000 1.0
C      1  0.5594960000000  0.5874570000000  0.5049880000000 1.0
C      1  0.5044660000000  0.5573000000000  0.5863950000000 1.0
C      1  0.5861390000000  0.5037180000000  0.5575750000000 1.0
C      1  0.4454110000000  0.5836120000000  0.4940180000000 1.0
C      1  0.5545880000000  0.4163890000000  0.4939990000000 1.0
C      1  0.4405040000000  0.4125420000000  0.5049810000000 1.0
C      1  0.4960350000000  0.5585760000000  0.4145960000000 1.0
C      1  0.5039570000000  0.4414370000000  0.4145870000000 1.0
C      1  0.4955430000000  0.4426870000000  0.5863870000000 1.0
C      1  0.4131250000000  0.5015490000000  0.4427070000000 1.0
C      1  0.5868690000000  0.4984600000000  0.4426980000000 1.0
C      1  0.4138670000000  0.4962730000000  0.5575830000000 1.0
C      1  0.5095400000000  0.5993840000000  0.5556900000000 1.0
C      1  0.6008910000000  0.5554050000000  0.5097820000000 1.0
C      1  0.5554880000000  0.5082420000000  0.5998180000000 1.0
C      1  0.4927030000000  0.5892380000000  0.4323850000000 1.0
C      1  0.4904650000000  0.4006080000000  0.5556760000000 1.0
C      1  0.5072900000000  0.4107720000000  0.4323700000000 1.0
C      1  0.4014790000000  0.5548290000000  0.4908720000000 1.0
C      1  0.3991100000000  0.4445940000000  0.5097840000000 1.0
C      1  0.5985210000000  0.4451720000000  0.4908540000000 1.0
C      1  0.4441830000000  0.5064790000000  0.4009390000000 1.0
C      1  0.4445220000000  0.4917430000000  0.5998220000000 1.0
C      1  0.5558070000000  0.4935360000000  0.4009320000000 1.0
C      1  0.4454960000000  0.4212720000000  0.4602400000000 1.0
C      1  0.4598770000000  0.4449920000000  0.4213890000000 1.0
C      1  0.4225600000000  0.4570880000000  0.4481060000000 1.0
C      1  0.5519390000000  0.4218460000000  0.5410050000000 1.0
C      1  0.4480650000000  0.5781480000000  0.5410230000000 1.0
C      1  0.5545000000000  0.5787340000000  0.4602460000000 1.0
C      1  0.5411690000000  0.4469030000000  0.5782820000000 1.0
C      1  0.4588390000000  0.5530850000000  0.5782940000000 1.0
C      1  0.5401150000000  0.5550200000000  0.4213930000000 1.0
C      1  0.5775900000000  0.4586130000000  0.5521190000000 1.0
C      1  0.4224160000000  0.5413790000000  0.5521330000000 1.0
C      1  0.5774350000000  0.5429190000000  0.4481050000000 1.0
C      1  0.4652290000000  0.4228930000000  0.4393730000000 1.0
C      1  0.4176780000000  0.4368790000000  0.4687020000000 1.0
C      1  0.4393180000000  0.4656190000000  0.4206130000000 1.0
C      1  0.5316780000000  0.4193860000000  0.5619930000000 1.0
C      1  0.5347650000000  0.5771160000000  0.4393810000000 1.0
C      1  0.4683280000000  0.5806050000000  0.5620080000000 1.0
C      1  0.5788210000000  0.4381730000000  0.5313660000000 1.0
C      1  0.5823190000000  0.5631250000000  0.4687030000000 1.0
C      1  0.4211830000000  0.5618220000000  0.5313830000000 1.0
C      1  0.5618210000000  0.4673640000000  0.5805070000000 1.0
C      1  0.5606740000000  0.5343930000000  0.4206120000000 1.0
C      1  0.4381880000000  0.5326240000000  0.5805180000000 1.0
C      1  0.4842810000000  0.4052160000000  0.5303540000000 1.0
C      1  0.5301090000000  0.4864890000000  0.4053010000000 1.0
C      1  0.4048640000000  0.5290880000000  0.4854270000000 1.0
C      1  0.5090810000000  0.3995670000000  0.4764770000000 1.0
C      1  0.4909160000000  0.6004370000000  0.4764930000000 1.0
C      1  0.5157220000000  0.5947790000000  0.5303660000000 1.0
C      1  0.4700250000000  0.4858710000000  0.5956870000000 1.0
C      1  0.5299850000000  0.5141150000000  0.5956860000000 1.0
C      1  0.4698810000000  0.5135260000000  0.4053060000000 1.0
C      1  0.5958340000000  0.5299810000000  0.5150140000000 1.0
C      1  0.4041680000000  0.4700170000000  0.5150190000000 1.0
C      1  0.5951340000000  0.4709150000000  0.4854130000000 1.0
C      1  0.5286830000000  0.4143170000000  0.4875070000000 1.0
C      1  0.4118180000000  0.4888900000000  0.5322730000000 1.0
C      1  0.4877360000000  0.5327000000000  0.4127670000000 1.0
C      1  0.4660870000000  0.4112350000000  0.5116490000000 1.0
C      1  0.4713150000000  0.5856850000000  0.4875220000000 1.0
C      1  0.5339140000000  0.5887630000000  0.5116590000000 1.0
C      1  0.5889330000000  0.4902630000000  0.4678720000000 1.0
C      1  0.5881850000000  0.5111050000000  0.5322660000000 1.0
C      1  0.4110640000000  0.5097410000000  0.4678820000000 1.0
C      1  0.5113560000000  0.5318370000000  0.5885130000000 1.0
C      1  0.5122550000000  0.4673130000000  0.4127610000000 1.0
C      1  0.4886530000000  0.4681500000000  0.5885100000000 1.0
C      1  0.5231210000000  0.5771100000000  0.4311930000000 1.0
C      1  0.5788770000000  0.4303660000000  0.5190470000000 1.0
C      1  0.5195940000000  0.4190020000000  0.5701750000000 1.0
C      1  0.4211250000000  0.5696310000000  0.5190650000000 1.0
C      1  0.5690880000000  0.5225190000000  0.4202240000000 1.0
C      1  0.4301060000000  0.5205250000000  0.5809830000000 1.0
C      1  0.4804130000000  0.5809880000000  0.5701890000000 1.0
C      1  0.4768720000000  0.4229010000000  0.4311840000000 1.0
C      1  0.4309040000000  0.4774930000000  0.4202280000000 1.0
C      1  0.5699020000000  0.4794630000000  0.5809730000000 1.0
C      1  0.4168290000000  0.4289940000000  0.4809550000000 1.0
C      1  0.5831690000000  0.5710080000000  0.4809570000000 1.0
END
