TITL C-73720-2007-10 -25.4030882726964 1000000 -3906.67577721829 0 0 540 (Td) n - 1
REM
REM in /home/chem/mssmkc/work/GAP20/Larger-Clusters/Only-C240/New/BUILD-ONLY
REM
REM
REM
REM
REM
REM ./C.cell (4d22446d3c8a03e2533cb19ef5564aa4)
REM
REM compiler GCC version 8.3.0
REM options -cpp -mtune=generic -march=x86-64 -g -O0
REM seed -960184643 -816893664 -1186701200 2078229481 153243679 1147583977 2079600238 -1484084867 -1367871789 630087592 1289524869 1652312563 -1128728099 -705462495 -1763264320 -989341834 1127748276 -290411666 1049478027 -1533671969 1168904482 -1847696075 842539453 -1686633903 1814379432 1116767746 1854305843 2109413718 554372887 -343378338 -1644564886 1646312027 -1205851664
REM
CELL 1.54180  100.00000  100.00000  100.00000   90.00000   90.00000   90.00000
LATT -1
SFAC C  
C      1  0.5900250000000  0.5127840000000  0.5377710000000 1.0
C      1  0.5373090000000  0.5902750000000  0.5123740000000 1.0
C      1  0.5121500000000  0.5377960000000  0.5901030000000 1.0
C      1  0.5902530000000  0.4877670000000  0.4625920000000 1.0
C      1  0.4098230000000  0.4873390000000  0.5374490000000 1.0
C      1  0.4098980000000  0.5121090000000  0.4621880000000 1.0
C      1  0.5379100000000  0.4099550000000  0.4877770000000 1.0
C      1  0.4626410000000  0.4097660000000  0.5125190000000 1.0
C      1  0.4621400000000  0.5900040000000  0.4873290000000 1.0
C      1  0.5127440000000  0.4622810000000  0.4099470000000 1.0
C      1  0.4874860000000  0.4625000000000  0.5901760000000 1.0
C      1  0.4876210000000  0.5374240000000  0.4097730000000 1.0
C      1  0.5899990000000  0.5379060000000  0.5125660000000 1.0
C      1  0.5373900000000  0.5127090000000  0.5901950000000 1.0
C      1  0.5120950000000  0.5902390000000  0.5374870000000 1.0
C      1  0.5902790000000  0.4626460000000  0.4877970000000 1.0
C      1  0.4097710000000  0.5373140000000  0.4873100000000 1.0
C      1  0.4099500000000  0.4621350000000  0.5123270000000 1.0
C      1  0.5378300000000  0.4875210000000  0.4099570000000 1.0
C      1  0.4625340000000  0.5121840000000  0.4097640000000 1.0
C      1  0.4622460000000  0.4875860000000  0.5900840000000 1.0
C      1  0.5127980000000  0.4098370000000  0.4625630000000 1.0
C      1  0.4873540000000  0.5900400000000  0.4622170000000 1.0
C      1  0.4877530000000  0.4098840000000  0.5377330000000 1.0
C      1  0.4945340000000  0.5717970000000  0.4369240000000 1.0
C      1  0.4369240000000  0.4945530000000  0.5717980000000 1.0
C      1  0.5721190000000  0.4372640000000  0.4948750000000 1.0
C      1  0.4947200000000  0.4281700000000  0.5630540000000 1.0
C      1  0.5057200000000  0.4279970000000  0.4371820000000 1.0
C      1  0.5050260000000  0.5720360000000  0.5628400000000 1.0
C      1  0.4371820000000  0.5050630000000  0.4279480000000 1.0
C      1  0.5627850000000  0.5056830000000  0.5720340000000 1.0
C      1  0.5631080000000  0.4947020000000  0.4282190000000 1.0
C      1  0.5717130000000  0.5631760000000  0.5054140000000 1.0
C      1  0.4279020000000  0.5627180000000  0.4943790000000 1.0
C      1  0.4282650000000  0.4368420000000  0.5053320000000 1.0
C      1  0.4946740000000  0.4371550000000  0.5720090000000 1.0
C      1  0.4368440000000  0.5717150000000  0.4943820000000 1.0
C      1  0.5720600000000  0.4947440000000  0.4372070000000 1.0
C      1  0.4945800000000  0.5628120000000  0.4279690000000 1.0
C      1  0.5057110000000  0.4369520000000  0.4281980000000 1.0
C      1  0.5050360000000  0.5630810000000  0.5718240000000 1.0
C      1  0.4372620000000  0.4279000000000  0.5053640000000 1.0
C      1  0.5627160000000  0.5721180000000  0.5053820000000 1.0
C      1  0.5631770000000  0.4282670000000  0.4948720000000 1.0
C      1  0.5717730000000  0.5056960000000  0.5630830000000 1.0
C      1  0.4279730000000  0.4945100000000  0.5628110000000 1.0
C      1  0.4281940000000  0.5050500000000  0.4368990000000 1.0
C      1  0.4051770000000  0.6046430000000  0.4840500000000 1.0
C      1  0.4844900000000  0.4055900000000  0.6050820000000 1.0
C      1  0.6051960000000  0.4845790000000  0.4057030000000 1.0
C      1  0.4057550000000  0.3947790000000  0.5155690000000 1.0
C      1  0.5948860000000  0.3953060000000  0.4847760000000 1.0
C      1  0.5941820000000  0.6052720000000  0.5156050000000 1.0
C      1  0.4843360000000  0.5943150000000  0.3948560000000 1.0
C      1  0.5150860000000  0.5947540000000  0.6048340000000 1.0
C      1  0.5160870000000  0.4053420000000  0.3952290000000 1.0
C      1  0.6047190000000  0.5160630000000  0.5947200000000 1.0
C      1  0.3951860000000  0.5151110000000  0.4052280000000 1.0
C      1  0.3949000000000  0.4842470000000  0.5943490000000 1.0
C      1  0.4053020000000  0.4842960000000  0.6047930000000 1.0
C      1  0.4842840000000  0.6047550000000  0.4052620000000 1.0
C      1  0.6052780000000  0.4057610000000  0.4847800000000 1.0
C      1  0.4056300000000  0.5151260000000  0.3948260000000 1.0
C      1  0.5947940000000  0.4845300000000  0.3952580000000 1.0
C      1  0.5942750000000  0.5160480000000  0.6051220000000 1.0
C      1  0.4845430000000  0.3951500000000  0.5946760000000 1.0
C      1  0.5150750000000  0.6051600000000  0.5943930000000 1.0
C      1  0.5160980000000  0.3949360000000  0.4056700000000 1.0
C      1  0.6046370000000  0.5948810000000  0.5156430000000 1.0
C      1  0.3953000000000  0.4051700000000  0.5155310000000 1.0
C      1  0.3947850000000  0.5941880000000  0.4840460000000 1.0
C      1  0.5044650000000  0.4140970000000  0.4345440000000 1.0
C      1  0.4345550000000  0.5037290000000  0.4140530000000 1.0
C      1  0.4143840000000  0.4341390000000  0.5040050000000 1.0
C      1  0.5036750000000  0.5859280000000  0.5654730000000 1.0
C      1  0.4958000000000  0.5856880000000  0.4342450000000 1.0
C      1  0.4960600000000  0.4142870000000  0.5657390000000 1.0
C      1  0.4342340000000  0.4958700000000  0.5856830000000 1.0
C      1  0.5657910000000  0.4959900000000  0.4143300000000 1.0
C      1  0.5654200000000  0.5044110000000  0.5859340000000 1.0
C      1  0.4139990000000  0.5653360000000  0.4956490000000 1.0
C      1  0.5856000000000  0.5658750000000  0.5041350000000 1.0
C      1  0.5860170000000  0.4346500000000  0.4962110000000 1.0
C      1  0.5044440000000  0.4342660000000  0.4143070000000 1.0
C      1  0.4346490000000  0.4139980000000  0.5040790000000 1.0
C      1  0.4143120000000  0.5037000000000  0.4342150000000 1.0
C      1  0.5036960000000  0.5657590000000  0.5857090000000 1.0
C      1  0.4959570000000  0.4345230000000  0.5859080000000 1.0
C      1  0.4959030000000  0.5654520000000  0.4140750000000 1.0
C      1  0.4341410000000  0.5856010000000  0.4956570000000 1.0
C      1  0.5658760000000  0.4143860000000  0.4962030000000 1.0
C      1  0.5653350000000  0.5860160000000  0.5040610000000 1.0
C      1  0.4140720000000  0.4957750000000  0.5654390000000 1.0
C      1  0.5856630000000  0.5044400000000  0.5657720000000 1.0
C      1  0.5859530000000  0.4960850000000  0.4345740000000 1.0
C      1  0.4580080000000  0.4474000000000  0.4101410000000 1.0
C      1  0.4103750000000  0.4573060000000  0.4475650000000 1.0
C      1  0.4480360000000  0.4099110000000  0.4577090000000 1.0
C      1  0.4573250000000  0.5523410000000  0.5896890000000 1.0
C      1  0.5423550000000  0.5523060000000  0.4101390000000 1.0
C      1  0.5423120000000  0.4479530000000  0.5900310000000 1.0
C      1  0.4099050000000  0.5421440000000  0.5520730000000 1.0
C      1  0.5898360000000  0.5425220000000  0.4477880000000 1.0
C      1  0.5898840000000  0.4580270000000  0.5525740000000 1.0
C      1  0.4473160000000  0.5897690000000  0.5420800000000 1.0
C      1  0.5521350000000  0.5899500000000  0.4576240000000 1.0
C      1  0.5525130000000  0.4103700000000  0.5425870000000 1.0
C      1  0.4580470000000  0.4099250000000  0.4477390000000 1.0
C      1  0.4103860000000  0.4473320000000  0.4575720000000 1.0
C      1  0.4479870000000  0.4573590000000  0.4101040000000 1.0
C      1  0.4572860000000  0.5898160000000  0.5520910000000 1.0
C      1  0.5425020000000  0.4103550000000  0.5525570000000 1.0
C      1  0.5421640000000  0.5899040000000  0.4476140000000 1.0
C      1  0.4098950000000  0.5521180000000  0.5420660000000 1.0
C      1  0.5899340000000  0.4480210000000  0.5426000000000 1.0
C      1  0.5897850000000  0.5525290000000  0.4577620000000 1.0
C      1  0.4473660000000  0.5423200000000  0.5896850000000 1.0
C      1  0.5522710000000  0.4579740000000  0.5900350000000 1.0
C      1  0.5523760000000  0.5423460000000  0.4101760000000 1.0
C      1  0.4187800000000  0.3905780000000  0.4951300000000 1.0
C      1  0.4955850000000  0.4182430000000  0.3909590000000 1.0
C      1  0.3910150000000  0.4946480000000  0.4182250000000 1.0
C      1  0.4180940000000  0.6089240000000  0.5045410000000 1.0
C      1  0.5812390000000  0.6094060000000  0.4951000000000 1.0
C      1  0.5818870000000  0.3910920000000  0.5052290000000 1.0
C      1  0.4946450000000  0.5817270000000  0.6090210000000 1.0
C      1  0.5048560000000  0.5813990000000  0.3907110000000 1.0
C      1  0.5049140000000  0.4186310000000  0.6093090000000 1.0
C      1  0.3906550000000  0.5046850000000  0.5813350000000 1.0
C      1  0.6093150000000  0.5050850000000  0.4186480000000 1.0
C      1  0.6090150000000  0.4955830000000  0.5817910000000 1.0
C      1  0.4186720000000  0.4946870000000  0.3906780000000 1.0
C      1  0.4956130000000  0.3906860000000  0.4186060000000 1.0
C      1  0.3910940000000  0.4180950000000  0.4950290000000 1.0
C      1  0.4182010000000  0.5048140000000  0.6089930000000 1.0
C      1  0.5813580000000  0.4955440000000  0.6093380000000 1.0
C      1  0.5817690000000  0.5049550000000  0.3909910000000 1.0
C      1  0.4946170000000  0.6092840000000  0.5813740000000 1.0
C      1  0.5050540000000  0.3909840000000  0.5817530000000 1.0
C      1  0.5047160000000  0.6090460000000  0.4182670000000 1.0
C      1  0.3905760000000  0.5812370000000  0.5045310000000 1.0
C      1  0.6094040000000  0.4187790000000  0.5052390000000 1.0
C      1  0.6089260000000  0.5818890000000  0.4952010000000 1.0
C      1  0.5894360000000  0.4211240000000  0.4924490000000 1.0
C      1  0.4920260000000  0.5890250000000  0.4207020000000 1.0
C      1  0.4207090000000  0.4920430000000  0.5890320000000 1.0
C      1  0.5889210000000  0.5794210000000  0.5079110000000 1.0
C      1  0.4105950000000  0.5788500000000  0.4918290000000 1.0
C      1  0.4110470000000  0.4206050000000  0.5078120000000 1.0
C      1  0.4922520000000  0.4109270000000  0.5792670000000 1.0
C      1  0.5082930000000  0.4107160000000  0.4210270000000 1.0
C      1  0.5074290000000  0.5893330000000  0.5790050000000 1.0
C      1  0.4210210000000  0.5074730000000  0.4106490000000 1.0
C      1  0.5789310000000  0.5082490000000  0.5893250000000 1.0
C      1  0.5793400000000  0.4922350000000  0.4109930000000 1.0
C      1  0.5893630000000  0.4922820000000  0.4210570000000 1.0
C      1  0.4922010000000  0.4209870000000  0.5892930000000 1.0
C      1  0.4206080000000  0.5889240000000  0.4918330000000 1.0
C      1  0.5889950000000  0.5082640000000  0.5793020000000 1.0
C      1  0.4106860000000  0.4919960000000  0.5789690000000 1.0
C      1  0.4109570000000  0.5074590000000  0.4206720000000 1.0
C      1  0.4920770000000  0.5789650000000  0.4106750000000 1.0
C      1  0.5082830000000  0.4207420000000  0.4109670000000 1.0
C      1  0.5074390000000  0.5793060000000  0.5890650000000 1.0
C      1  0.4211210000000  0.4105920000000  0.5078480000000 1.0
C      1  0.5788470000000  0.5894340000000  0.5078740000000 1.0
C      1  0.5794240000000  0.4110500000000  0.4924450000000 1.0
C      1  0.4552160000000  0.4342610000000  0.4150270000000 1.0
C      1  0.4152810000000  0.4544770000000  0.4344420000000 1.0
C      1  0.4348900000000  0.4147360000000  0.4548520000000 1.0
C      1  0.4544730000000  0.5654620000000  0.5847910000000 1.0
C      1  0.5451270000000  0.5654600000000  0.4149940000000 1.0
C      1  0.5451840000000  0.4348160000000  0.5851880000000 1.0
C      1  0.4147400000000  0.5450030000000  0.5652160000000 1.0
C      1  0.5849840000000  0.5453080000000  0.4346360000000 1.0
C      1  0.5849950000000  0.4552120000000  0.5657070000000 1.0
C      1  0.4341880000000  0.5848630000000  0.5448840000000 1.0
C      1  0.5652930000000  0.5851160000000  0.4548370000000 1.0
C      1  0.5656300000000  0.4152850000000  0.5454270000000 1.0
C      1  0.4552360000000  0.4147650000000  0.4345870000000 1.0
C      1  0.4153020000000  0.4342050000000  0.4547810000000 1.0
C      1  0.4348480000000  0.4545050000000  0.4149530000000 1.0
C      1  0.4544530000000  0.5849590000000  0.5652310000000 1.0
C      1  0.5452830000000  0.4152560000000  0.5656920000000 1.0
C      1  0.5450280000000  0.5850200000000  0.4344900000000 1.0
C      1  0.4147190000000  0.5652750000000  0.5448770000000 1.0
C      1  0.5850980000000  0.4348730000000  0.5454340000000 1.0
C      1  0.5848810000000  0.5656470000000  0.4549080000000 1.0
C      1  0.4342290000000  0.5450950000000  0.5847840000000 1.0
C      1  0.5654270000000  0.4551840000000  0.5851960000000 1.0
C      1  0.5654950000000  0.5452160000000  0.4150680000000 1.0
C      1  0.5771280000000  0.4433930000000  0.5672890000000 1.0
C      1  0.5669190000000  0.5772010000000  0.4430560000000 1.0
C      1  0.4426870000000  0.5669920000000  0.5768650000000 1.0
C      1  0.5770510000000  0.5570780000000  0.4330220000000 1.0
C      1  0.4226010000000  0.5568260000000  0.5667910000000 1.0
C      1  0.4232200000000  0.4427020000000  0.4328980000000 1.0
C      1  0.5671600000000  0.4232090000000  0.5572140000000 1.0
C      1  0.4333110000000  0.4226120000000  0.4430390000000 1.0
C      1  0.4326090000000  0.5769780000000  0.5566910000000 1.0
C      1  0.4434080000000  0.4326600000000  0.4229060000000 1.0
C      1  0.5570010000000  0.4332610000000  0.5773150000000 1.0
C      1  0.5569030000000  0.5670880000000  0.4229150000000 1.0
C      1  0.5770000000000  0.5671820000000  0.4430930000000 1.0
C      1  0.5670580000000  0.4433790000000  0.5773190000000 1.0
C      1  0.4426770000000  0.5770250000000  0.5667990000000 1.0
C      1  0.5771800000000  0.4332890000000  0.5572180000000 1.0
C      1  0.4225900000000  0.5668980000000  0.5566870000000 1.0
C      1  0.4232300000000  0.4326310000000  0.4430020000000 1.0
C      1  0.5670220000000  0.5570310000000  0.4229510000000 1.0
C      1  0.4332900000000  0.4427160000000  0.4228690000000 1.0
C      1  0.4326300000000  0.5568740000000  0.5768610000000 1.0
C      1  0.4434190000000  0.4226260000000  0.4329720000000 1.0
C      1  0.5568520000000  0.5771540000000  0.4329480000000 1.0
C      1  0.5570520000000  0.4231940000000  0.5672820000000 1.0
C      1  0.4758280000000  0.5946180000000  0.5720870000000 1.0
C      1  0.5721710000000  0.4766390000000  0.5947570000000 1.0
C      1  0.5944000000000  0.5725400000000  0.4763350000000 1.0
C      1  0.4766980000000  0.4052360000000  0.4278180000000 1.0
C      1  0.5238800000000  0.4056190000000  0.5724930000000 1.0
C      1  0.5235940000000  0.5945270000000  0.4276020000000 1.0
C      1  0.5724080000000  0.5238030000000  0.4055340000000 1.0
C      1  0.4274470000000  0.5236710000000  0.5943880000000 1.0
C      1  0.4279740000000  0.4758870000000  0.4053210000000 1.0
C      1  0.5947450000000  0.4280380000000  0.5240460000000 1.0
C      1  0.4056960000000  0.4273820000000  0.4761910000000 1.0
C      1  0.4051590000000  0.5720400000000  0.5234280000000 1.0
C      1  0.4758510000000  0.5723720000000  0.5944060000000 1.0
C      1  0.5720490000000  0.5947550000000  0.4762530000000 1.0
C      1  0.5944990000000  0.4766710000000  0.5725200000000 1.0
C      1  0.4766750000000  0.4274830000000  0.4054980000000 1.0
C      1  0.5237070000000  0.5722080000000  0.4053560000000 1.0
C      1  0.5237670000000  0.4279380000000  0.5947390000000 1.0
C      1  0.5725310000000  0.4056870000000  0.5240380000000 1.0
C      1  0.4273730000000  0.5943900000000  0.5234360000000 1.0
C      1  0.4280470000000  0.4051680000000  0.4762730000000 1.0
C      1  0.5946460000000  0.5239080000000  0.4278610000000 1.0
C      1  0.4056460000000  0.4758550000000  0.4275580000000 1.0
C      1  0.4052090000000  0.5235660000000  0.5720610000000 1.0
C      1  0.4752990000000  0.4072260000000  0.4649930000000 1.0
C      1  0.4651550000000  0.4746850000000  0.4073310000000 1.0
C      1  0.4075180000000  0.4645670000000  0.4748160000000 1.0
C      1  0.4745910000000  0.5926200000000  0.5349060000000 1.0
C      1  0.5248430000000  0.5926590000000  0.4647890000000 1.0
C      1  0.5252680000000  0.4074950000000  0.5353120000000 1.0
C      1  0.4646280000000  0.5251000000000  0.5925280000000 1.0
C      1  0.5352190000000  0.5250110000000  0.4073900000000 1.0
C      1  0.5349980000000  0.4752040000000  0.5927520000000 1.0
C      1  0.4072030000000  0.5348660000000  0.5248110000000 1.0
C      1  0.5925830000000  0.5353510000000  0.4750730000000 1.0
C      1  0.5926960000000  0.4652160000000  0.5253000000000 1.0
C      1  0.4752390000000  0.4646630000000  0.4073680000000 1.0
C      1  0.4652250000000  0.4072120000000  0.4750260000000 1.0
C      1  0.4075080000000  0.4746040000000  0.4647460000000 1.0
C      1  0.4746500000000  0.5351840000000  0.5925320000000 1.0
C      1  0.5249760000000  0.4651200000000  0.5927480000000 1.0
C      1  0.5251350000000  0.5350340000000  0.4073530000000 1.0
C      1  0.4645580000000  0.5925730000000  0.5248330000000 1.0
C      1  0.5353410000000  0.4075090000000  0.5252790000000 1.0
C      1  0.5348760000000  0.5927060000000  0.4748630000000 1.0
C      1  0.4072130000000  0.5248300000000  0.5348810000000 1.0
C      1  0.5926450000000  0.4752850000000  0.5353370000000 1.0
C      1  0.5926340000000  0.5252810000000  0.4650370000000 1.0
C      1  0.5319430000000  0.5111970000000  0.4074870000000 1.0
C      1  0.4073220000000  0.5315260000000  0.5110130000000 1.0
C      1  0.5114700000000  0.4075280000000  0.5319660000000 1.0
C      1  0.5316380000000  0.4889980000000  0.5926410000000 1.0
C      1  0.4684300000000  0.4885000000000  0.4073960000000 1.0
C      1  0.4679880000000  0.5113060000000  0.5924760000000 1.0
C      1  0.4075610000000  0.4679080000000  0.4886140000000 1.0
C      1  0.5926330000000  0.4685110000000  0.5114900000000 1.0
C      1  0.5924840000000  0.5320560000000  0.4888830000000 1.0
C      1  0.5110330000000  0.5925410000000  0.4680800000000 1.0
C      1  0.4884020000000  0.5925760000000  0.5316160000000 1.0
C      1  0.4890960000000  0.4073550000000  0.4683390000000 1.0
C      1  0.5320510000000  0.4075570000000  0.5114680000000 1.0
C      1  0.4073430000000  0.5110200000000  0.5315860000000 1.0
C      1  0.5113410000000  0.5316740000000  0.4074120000000 1.0
C      1  0.5315310000000  0.5926370000000  0.4886610000000 1.0
C      1  0.4685150000000  0.4073260000000  0.4888370000000 1.0
C      1  0.4679040000000  0.5924800000000  0.5110350000000 1.0
C      1  0.4075400000000  0.4884140000000  0.4680410000000 1.0
C      1  0.5925880000000  0.5114820000000  0.4683770000000 1.0
C      1  0.5925290000000  0.4890840000000  0.5319960000000 1.0
C      1  0.5111610000000  0.4683950000000  0.5926340000000 1.0
C      1  0.4884650000000  0.5319080000000  0.5924840000000 1.0
C      1  0.4890330000000  0.4680230000000  0.4074710000000 1.0
C      1  0.5239330000000  0.5890450000000  0.5337900000000 1.0
C      1  0.5336330000000  0.5245220000000  0.5889440000000 1.0
C      1  0.5887630000000  0.5341990000000  0.5243960000000 1.0
C      1  0.5246130000000  0.4111030000000  0.4663080000000 1.0
C      1  0.4759300000000  0.4110660000000  0.5339840000000 1.0
C      1  0.4755240000000  0.5887860000000  0.4659180000000 1.0
C      1  0.5341410000000  0.4756850000000  0.4111920000000 1.0
C      1  0.4660080000000  0.4757690000000  0.5888870000000 1.0
C      1  0.4662180000000  0.5240240000000  0.4109760000000 1.0
C      1  0.5890680000000  0.4663450000000  0.4759620000000 1.0
C      1  0.4111390000000  0.4658810000000  0.5241500000000 1.0
C      1  0.4110300000000  0.5335750000000  0.4754920000000 1.0
C      1  0.5239900000000  0.5341070000000  0.5889090000000 1.0
C      1  0.5335660000000  0.5890590000000  0.5241950000000 1.0
C      1  0.5887730000000  0.5246000000000  0.5340260000000 1.0
C      1  0.5245560000000  0.4660420000000  0.4111890000000 1.0
C      1  0.4758030000000  0.5336670000000  0.4109800000000 1.0
C      1  0.4756510000000  0.4661840000000  0.5889230000000 1.0
C      1  0.5342080000000  0.4111480000000  0.4759410000000 1.0
C      1  0.4658900000000  0.5887720000000  0.4755130000000 1.0
C      1  0.4663360000000  0.4110210000000  0.5243510000000 1.0
C      1  0.5890580000000  0.4759430000000  0.4663320000000 1.0
C      1  0.4110790000000  0.5239460000000  0.4658940000000 1.0
C      1  0.4110900000000  0.4755110000000  0.5337480000000 1.0
C      1  0.4716760000000  0.4076260000000  0.4513650000000 1.0
C      1  0.4515450000000  0.4709960000000  0.4077420000000 1.0
C      1  0.4080000000000  0.4509420000000  0.4711900000000 1.0
C      1  0.4709160000000  0.5921990000000  0.5485190000000 1.0
C      1  0.5285200000000  0.5922150000000  0.4511770000000 1.0
C      1  0.5288870000000  0.4079610000000  0.5489380000000 1.0
C      1  0.4509980000000  0.5287060000000  0.5920620000000 1.0
C      1  0.5488270000000  0.5287020000000  0.4078440000000 1.0
C      1  0.5486300000000  0.4715960000000  0.5923520000000 1.0
C      1  0.4075870000000  0.5484940000000  0.5284380000000 1.0
C      1  0.5921160000000  0.5489640000000  0.4714020000000 1.0
C      1  0.5922980000000  0.4516000000000  0.5289700000000 1.0
C      1  0.4716310000000  0.4510320000000  0.4078150000000 1.0
C      1  0.4516110000000  0.4075970000000  0.4713500000000 1.0
C      1  0.4079800000000  0.4709340000000  0.4511330000000 1.0
C      1  0.4709610000000  0.5487920000000  0.5920690000000 1.0
C      1  0.5286660000000  0.4515100000000  0.5923450000000 1.0
C      1  0.5287410000000  0.5486650000000  0.4077710000000 1.0
C      1  0.4509320000000  0.5921050000000  0.5284540000000 1.0
C      1  0.5489520000000  0.4079890000000  0.5289540000000 1.0
C      1  0.5485050000000  0.5923090000000  0.4712430000000 1.0
C      1  0.4076070000000  0.5285020000000  0.5484960000000 1.0
C      1  0.5921960000000  0.4716580000000  0.5489620000000 1.0
C      1  0.5922170000000  0.5289060000000  0.4514100000000 1.0
C      1  0.4945870000000  0.4861520000000  0.5926790000000 1.0
C      1  0.5927110000000  0.4949920000000  0.4862110000000 1.0
C      1  0.4857430000000  0.5926150000000  0.4945510000000 1.0
C      1  0.4948760000000  0.5138160000000  0.4072990000000 1.0
C      1  0.5050390000000  0.5141520000000  0.5926550000000 1.0
C      1  0.5054980000000  0.4858800000000  0.4073670000000 1.0
C      1  0.5926220000000  0.5055750000000  0.5141620000000 1.0
C      1  0.4073450000000  0.5049620000000  0.4858200000000 1.0
C      1  0.4073210000000  0.4944710000000  0.5138060000000 1.0
C      1  0.4862880000000  0.4072990000000  0.5053930000000 1.0
C      1  0.5142780000000  0.4073670000000  0.4949120000000 1.0
C      1  0.5136900000000  0.5927180000000  0.5051440000000 1.0
C      1  0.4944770000000  0.5926280000000  0.4858530000000 1.0
C      1  0.5927200000000  0.4862910000000  0.4949410000000 1.0
C      1  0.4858450000000  0.4948410000000  0.5926470000000 1.0
C      1  0.4949860000000  0.4073400000000  0.5141260000000 1.0
C      1  0.5049570000000  0.5927060000000  0.5138420000000 1.0
C      1  0.5055800000000  0.4073260000000  0.4861790000000 1.0
C      1  0.5926130000000  0.5142760000000  0.5054320000000 1.0
C      1  0.4073650000000  0.4857410000000  0.5051050000000 1.0
C      1  0.4073010000000  0.5136920000000  0.4945220000000 1.0
C      1  0.4861870000000  0.5050740000000  0.4072960000000 1.0
C      1  0.5141870000000  0.4946220000000  0.4073700000000 1.0
C      1  0.5137810000000  0.5054630000000  0.5926860000000 1.0
C      1  0.4139940000000  0.5753550000000  0.5347870000000 1.0
C      1  0.5351930000000  0.4145270000000  0.5757710000000 1.0
C      1  0.5756250000000  0.5351740000000  0.4143900000000 1.0
C      1  0.4145980000000  0.4241210000000  0.4648680000000 1.0
C      1  0.5858640000000  0.4247600000000  0.5353810000000 1.0
C      1  0.5855440000000  0.5757640000000  0.4649650000000 1.0
C      1  0.5349740000000  0.5856870000000  0.4243700000000 1.0
C      1  0.4645020000000  0.5857200000000  0.5753480000000 1.0
C      1  0.4653310000000  0.4140650000000  0.4245110000000 1.0
C      1  0.5754930000000  0.4652880000000  0.5859140000000 1.0
C      1  0.4247210000000  0.4645450000000  0.4142010000000 1.0
C      1  0.4241600000000  0.5349930000000  0.5854940000000 1.0
C      1  0.4140360000000  0.5349450000000  0.5753290000000 1.0
C      1  0.5350260000000  0.5755260000000  0.4142420000000 1.0
C      1  0.5757500000000  0.4145850000000  0.5353770000000 1.0
C      1  0.4145560000000  0.4645300000000  0.4243250000000 1.0
C      1  0.5857490000000  0.5352220000000  0.4245550000000 1.0
C      1  0.5856580000000  0.4653020000000  0.5757900000000 1.0
C      1  0.5351410000000  0.4246880000000  0.5858990000000 1.0
C      1  0.4645120000000  0.5755920000000  0.5855090000000 1.0
C      1  0.4653200000000  0.4241930000000  0.4143490000000 1.0
C      1  0.5753680000000  0.5858770000000  0.4649270000000 1.0
C      1  0.4247730000000  0.4140080000000  0.4649050000000 1.0
C      1  0.4241080000000  0.5855300000000  0.5347910000000 1.0
C      1  0.5589720000000  0.4070520000000  0.5190300000000 1.0
C      1  0.5187670000000  0.5586300000000  0.4067830000000 1.0
C      1  0.4066660000000  0.5185690000000  0.5585070000000 1.0
C      1  0.5584780000000  0.5933070000000  0.4812070000000 1.0
C      1  0.4409520000000  0.5930090000000  0.5184870000000 1.0
C      1  0.4415980000000  0.4066310000000  0.4812770000000 1.0
C      1  0.5187490000000  0.4414850000000  0.5932930000000 1.0
C      1  0.4816100000000  0.4410650000000  0.4069000000000 1.0
C      1  0.4808740000000  0.5588200000000  0.5930240000000 1.0
C      1  0.4070180000000  0.4808610000000  0.4411180000000 1.0
C      1  0.5930970000000  0.4816230000000  0.5589440000000 1.0
C      1  0.5932200000000  0.5189470000000  0.4414320000000 1.0
C      1  0.5588560000000  0.5187850000000  0.4069290000000 1.0
C      1  0.5189240000000  0.4069950000000  0.5589160000000 1.0
C      1  0.4066240000000  0.5584710000000  0.5184740000000 1.0
C      1  0.5585940000000  0.4815740000000  0.5933080000000 1.0
C      1  0.4410300000000  0.5187310000000  0.5930090000000 1.0
C      1  0.4415200000000  0.4809100000000  0.4067540000000 1.0
C      1  0.5185920000000  0.5931190000000  0.4411590000000 1.0
C      1  0.4816450000000  0.4066880000000  0.4413900000000 1.0
C      1  0.4808390000000  0.5931970000000  0.5585340000000 1.0
C      1  0.4070590000000  0.4409590000000  0.4811510000000 1.0
C      1  0.5930170000000  0.5589790000000  0.4813330000000 1.0
C      1  0.5933000000000  0.4415910000000  0.5190420000000 1.0
C      1  0.5552900000000  0.5920870000000  0.4951900000000 1.0
C      1  0.4948730000000  0.5556970000000  0.5918240000000 1.0
C      1  0.5918270000000  0.4956010000000  0.5557550000000 1.0
C      1  0.5558330000000  0.4082530000000  0.5050340000000 1.0
C      1  0.4447290000000  0.4078970000000  0.4952680000000 1.0
C      1  0.4441480000000  0.5917630000000  0.5045080000000 1.0
C      1  0.4955840000000  0.4442730000000  0.4081570000000 1.0
C      1  0.5047550000000  0.4446040000000  0.5920260000000 1.0
C      1  0.5047870000000  0.5554250000000  0.4079930000000 1.0
C      1  0.5920220000000  0.5049610000000  0.4446160000000 1.0
C      1  0.4079480000000  0.5045810000000  0.5553680000000 1.0
C      1  0.4082020000000  0.4948570000000  0.4442610000000 1.0
C      1  0.5553900000000  0.4955500000000  0.5920450000000 1.0
C      1  0.4948360000000  0.5920010000000  0.5554010000000 1.0
C      1  0.5917650000000  0.5558350000000  0.4953230000000 1.0
C      1  0.5557320000000  0.5047900000000  0.4081790000000 1.0
C      1  0.4446390000000  0.4949080000000  0.4079710000000 1.0
C      1  0.4442380000000  0.5047520000000  0.5918050000000 1.0
C      1  0.4956220000000  0.4079690000000  0.4445800000000 1.0
C      1  0.5046020000000  0.5918480000000  0.4442970000000 1.0
C      1  0.5049400000000  0.4081810000000  0.5557220000000 1.0
C      1  0.5920850000000  0.4447280000000  0.5050480000000 1.0
C      1  0.4078960000000  0.5552880000000  0.5044950000000 1.0
C      1  0.4082550000000  0.4441500000000  0.4951350000000 1.0
C      1  0.6027640000000  0.5839220000000  0.5076440000000 1.0
C      1  0.5070900000000  0.6031950000000  0.5834410000000 1.0
C      1  0.5833630000000  0.5079980000000  0.6031910000000 1.0
C      1  0.6033060000000  0.4167080000000  0.4927710000000 1.0
C      1  0.3972050000000  0.4161030000000  0.5075030000000 1.0
C      1  0.3967250000000  0.5832670000000  0.4920810000000 1.0
C      1  0.5080570000000  0.3968510000000  0.4165900000000 1.0
C      1  0.4925720000000  0.3970790000000  0.5837490000000 1.0
C      1  0.4922810000000  0.6028750000000  0.4162210000000 1.0
C      1  0.5838260000000  0.4925130000000  0.3971460000000 1.0
C      1  0.4162210000000  0.4923400000000  0.6028790000000 1.0
C      1  0.4165900000000  0.5071490000000  0.3967840000000 1.0
C      1  0.6028430000000  0.5080260000000  0.5837900000000 1.0
C      1  0.5071100000000  0.5837870000000  0.6029130000000 1.0
C      1  0.5832640000000  0.6033030000000  0.5075730000000 1.0
C      1  0.6032270000000  0.4926050000000  0.4166250000000 1.0
C      1  0.3971110000000  0.5071210000000  0.4161850000000 1.0
C      1  0.3968190000000  0.4922480000000  0.5834000000000 1.0
C      1  0.5080370000000  0.4162600000000  0.3971170000000 1.0
C      1  0.4923790000000  0.5834030000000  0.3968120000000 1.0
C      1  0.4924740000000  0.4165510000000  0.6031570000000 1.0
C      1  0.5839250000000  0.3972080000000  0.4927640000000 1.0
C      1  0.4161060000000  0.6027670000000  0.4920890000000 1.0
C      1  0.4167050000000  0.3967220000000  0.5075750000000 1.0
C      1  0.4085950000000  0.4987050000000  0.4579680000000 1.0
C      1  0.4584330000000  0.4083780000000  0.4991190000000 1.0
C      1  0.4993660000000  0.4579980000000  0.4085740000000 1.0
C      1  0.4084200000000  0.5007360000000  0.5416630000000 1.0
C      1  0.5915740000000  0.5011580000000  0.4583340000000 1.0
C      1  0.5914110000000  0.4994010000000  0.5420350000000 1.0
C      1  0.4578700000000  0.5913660000000  0.5007120000000 1.0
C      1  0.5415710000000  0.5916190000000  0.4989870000000 1.0
C      1  0.5421270000000  0.4086370000000  0.5011820000000 1.0
C      1  0.4987400000000  0.5419960000000  0.5914220000000 1.0
C      1  0.5010040000000  0.5417020000000  0.4084400000000 1.0
C      1  0.5008900000000  0.4583040000000  0.5915640000000 1.0
C      1  0.4086370000000  0.4578700000000  0.4989380000000 1.0
C      1  0.4583390000000  0.4987750000000  0.4084240000000 1.0
C      1  0.4994170000000  0.4084360000000  0.4582990000000 1.0
C      1  0.4083770000000  0.5415710000000  0.5006940000000 1.0
C      1  0.5916190000000  0.4584320000000  0.5012000000000 1.0
C      1  0.5913670000000  0.5421270000000  0.4991690000000 1.0
C      1  0.4579630000000  0.5009690000000  0.5914070000000 1.0
C      1  0.5416670000000  0.4993310000000  0.5915790000000 1.0
C      1  0.5420310000000  0.5009250000000  0.4085900000000 1.0
C      1  0.4986890000000  0.5915590000000  0.5416970000000 1.0
C      1  0.5011420000000  0.4085790000000  0.5420010000000 1.0
C      1  0.5007520000000  0.5914270000000  0.4580020000000 1.0
C      1  0.4923660000000  0.4072850000000  0.4819690000000 1.0
C      1  0.4820440000000  0.4918390000000  0.4073160000000 1.0
C      1  0.4074110000000  0.4815370000000  0.4918890000000 1.0
C      1  0.4917260000000  0.5926660000000  0.5179990000000 1.0
C      1  0.5077080000000  0.5926550000000  0.4816970000000 1.0
C      1  0.5082000000000  0.4073930000000  0.5183350000000 1.0
C      1  0.4816220000000  0.5080500000000  0.5926110000000 1.0
C      1  0.5183300000000  0.5078580000000  0.4073630000000 1.0
C      1  0.5180040000000  0.4922530000000  0.5927110000000 1.0
C      1  0.4072680000000  0.5178970000000  0.5077370000000 1.0
C      1  0.5926210000000  0.5184370000000  0.4922030000000 1.0
C      1  0.5927000000000  0.4821290000000  0.5081710000000 1.0
C      1  0.4922890000000  0.4816570000000  0.4073530000000 1.0
C      1  0.4821320000000  0.4072710000000  0.4921620000000 1.0
C      1  0.4074000000000  0.4917330000000  0.4816590000000 1.0
C      1  0.4918030000000  0.5182950000000  0.5926150000000 1.0
C      1  0.5078220000000  0.4820090000000  0.5927070000000 1.0
C      1  0.5080860000000  0.5180390000000  0.4073250000000 1.0
C      1  0.4815340000000  0.5926180000000  0.5077650000000 1.0
C      1  0.5184340000000  0.4074080000000  0.5081430000000 1.0
C      1  0.5179000000000  0.5927030000000  0.4919300000000 1.0
C      1  0.4072780000000  0.5077000000000  0.5179670000000 1.0
C      1  0.5926480000000  0.4923590000000  0.5183670000000 1.0
C      1  0.5926730000000  0.5082080000000  0.4820070000000 1.0
C      1  0.4834410000000  0.5793270000000  0.6037230000000 1.0
C      1  0.6037740000000  0.4843410000000  0.5794420000000 1.0
C      1  0.5789210000000  0.6041010000000  0.4838820000000 1.0
C      1  0.4843450000000  0.4205740000000  0.3962130000000 1.0
C      1  0.5161390000000  0.4210130000000  0.6040480000000 1.0
C      1  0.5160750000000  0.5790850000000  0.3960170000000 1.0
C      1  0.6039960000000  0.5162950000000  0.4209760000000 1.0
C      1  0.3959060000000  0.5159190000000  0.5789710000000 1.0
C      1  0.3963240000000  0.4834460000000  0.4206110000000 1.0
C      1  0.5794910000000  0.3963840000000  0.5164370000000 1.0
C      1  0.4211440000000  0.3958460000000  0.4839040000000 1.0
C      1  0.4204440000000  0.6036690000000  0.5157760000000 1.0
C      1  0.4834160000000  0.6039660000000  0.5790030000000 1.0
C      1  0.6036750000000  0.5794980000000  0.4839720000000 1.0
C      1  0.5790460000000  0.4843060000000  0.6040710000000 1.0
C      1  0.4843710000000  0.3959360000000  0.4209320000000 1.0
C      1  0.5159490000000  0.6038040000000  0.4206550000000 1.0
C      1  0.5162640000000  0.3962940000000  0.5794100000000 1.0
C      1  0.6040940000000  0.4211380000000  0.5164460000000 1.0
C      1  0.3958410000000  0.5789150000000  0.5157670000000 1.0
C      1  0.3963900000000  0.4204500000000  0.4838140000000 1.0
C      1  0.5793670000000  0.5161790000000  0.3962480000000 1.0
C      1  0.4210530000000  0.4834810000000  0.3959820000000 1.0
C      1  0.4205350000000  0.5160350000000  0.6036990000000 1.0
C      1  0.3928560000000  0.3922710000000  0.5197750000000 1.0
C      1  0.5203600000000  0.3924520000000  0.3927840000000 1.0
C      1  0.3927240000000  0.5193100000000  0.3923180000000 1.0
C      1  0.3922790000000  0.6070710000000  0.4797920000000 1.0
C      1  0.6070640000000  0.6077930000000  0.5198550000000 1.0
C      1  0.6078010000000  0.3928640000000  0.4805780000000 1.0
C      1  0.5192700000000  0.6076690000000  0.6072960000000 1.0
C      1  0.4800740000000  0.6071960000000  0.3923510000000 1.0
C      1  0.4802960000000  0.3926830000000  0.6075690000000 1.0
C      1  0.3924110000000  0.4800320000000  0.6072490000000 1.0
C      1  0.6077100000000  0.4803380000000  0.3928160000000 1.0
C      1  0.6071550000000  0.5203200000000  0.6076170000000 1.0
END
