TITL C-731043-5360-2 63.9884410076355 1000000 -3643.54799600132 0 0 540 (Th) n - 1
REM
REM in /scratch/bkarasulu/Only-C240/Try5-OnlyC540
REM
REM
REM
REM
REM
REM ./C.cell (44946988efc617adc4c7d3233e6f571a)
REM
REM compiler GCC version 9.2.1 20190827 (Red Hat 9.2.1-1)
REM options -cpp -mtune=generic -march=x86-64 -g -O0 -fpre-include=/usr/include/finclude/math-vector-fortran.h
REM seed -209220212 -1612722900 1774569770 138520879 534593084 951022701 -1194941508 -180351046 -1225331632 707548103 -182847698 688254894 1854678110 -648312065 1994257040 -1431115587 -1101193040 -1537796083 1323568114 -630460506 1809449152 -117361738 -1338090861 750554847 1704772319 -556637492 -461274851 386680488 -1316590348 -2140169370 1011359285 -371295837 1846583588
REM
CELL 1.54180  100.00000  100.00000  100.00000   90.00000   90.00000   90.00000
LATT -1
SFAC C  
C      1  0.5074140000000  0.4135220000000  0.5480090000000 1.0
C      1  0.5480280000000  0.5074360000000  0.4134800000000 1.0
C      1  0.4135560000000  0.5480180000000  0.5074250000000 1.0
C      1  0.5074380000000  0.5865330000000  0.4519780000000 1.0
C      1  0.4925660000000  0.5865280000000  0.5480680000000 1.0
C      1  0.4925770000000  0.4135490000000  0.4519880000000 1.0
C      1  0.5480220000000  0.4925490000000  0.5864880000000 1.0
C      1  0.4519490000000  0.4925650000000  0.4134710000000 1.0
C      1  0.4519880000000  0.5074390000000  0.5865520000000 1.0
C      1  0.4134170000000  0.4519870000000  0.4925600000000 1.0
C      1  0.5865810000000  0.4519570000000  0.5074440000000 1.0
C      1  0.5865290000000  0.5480150000000  0.4925770000000 1.0
C      1  0.4925450000000  0.4134450000000  0.5480000000000 1.0
C      1  0.4519700000000  0.5074320000000  0.4134120000000 1.0
C      1  0.5864640000000  0.5480240000000  0.5074420000000 1.0
C      1  0.4925730000000  0.5864800000000  0.4519580000000 1.0
C      1  0.5074320000000  0.5865810000000  0.5480530000000 1.0
C      1  0.5074450000000  0.4134610000000  0.4519990000000 1.0
C      1  0.4519680000000  0.4925710000000  0.5864660000000 1.0
C      1  0.5480410000000  0.4925700000000  0.4135330000000 1.0
C      1  0.5479910000000  0.5074160000000  0.5865450000000 1.0
C      1  0.5865200000000  0.4519430000000  0.4925770000000 1.0
C      1  0.4134830000000  0.4519620000000  0.5074280000000 1.0
C      1  0.4134920000000  0.5479940000000  0.4925580000000 1.0
C      1  0.4593680000000  0.5919070000000  0.5597640000000 1.0
C      1  0.5597460000000  0.4593640000000  0.5918840000000 1.0
C      1  0.5918710000000  0.5597460000000  0.4593700000000 1.0
C      1  0.4593980000000  0.4081640000000  0.4402670000000 1.0
C      1  0.5405960000000  0.4081360000000  0.5597270000000 1.0
C      1  0.5406490000000  0.5918720000000  0.4402670000000 1.0
C      1  0.5597510000000  0.5406430000000  0.4081390000000 1.0
C      1  0.4402450000000  0.5406530000000  0.5918640000000 1.0
C      1  0.4402440000000  0.4593690000000  0.4081010000000 1.0
C      1  0.5918720000000  0.4402240000000  0.5406630000000 1.0
C      1  0.4081320000000  0.4402560000000  0.4593390000000 1.0
C      1  0.4081580000000  0.5597530000000  0.5406010000000 1.0
C      1  0.5406530000000  0.5918850000000  0.5597670000000 1.0
C      1  0.4402440000000  0.4593920000000  0.5918550000000 1.0
C      1  0.4081670000000  0.5597320000000  0.4593520000000 1.0
C      1  0.5406550000000  0.4081400000000  0.4402470000000 1.0
C      1  0.4593340000000  0.4081300000000  0.5597490000000 1.0
C      1  0.4593870000000  0.5918700000000  0.4402420000000 1.0
C      1  0.4402610000000  0.5406520000000  0.4080950000000 1.0
C      1  0.5597190000000  0.5406290000000  0.5918530000000 1.0
C      1  0.5597640000000  0.4593850000000  0.4081530000000 1.0
C      1  0.4080850000000  0.4402520000000  0.5406160000000 1.0
C      1  0.5919100000000  0.4402450000000  0.4593830000000 1.0
C      1  0.5918520000000  0.5597290000000  0.5406290000000 1.0
C      1  0.4756910000000  0.4593030000000  0.5995750000000 1.0
C      1  0.5996390000000  0.4756960000000  0.4593380000000 1.0
C      1  0.4593240000000  0.5995870000000  0.4756910000000 1.0
C      1  0.4756920000000  0.5407140000000  0.4003410000000 1.0
C      1  0.5242960000000  0.5407330000000  0.5996180000000 1.0
C      1  0.5243160000000  0.4593110000000  0.4004260000000 1.0
C      1  0.5995710000000  0.5242820000000  0.5406960000000 1.0
C      1  0.4004020000000  0.5243110000000  0.4592470000000 1.0
C      1  0.4003660000000  0.4757020000000  0.5406710000000 1.0
C      1  0.4592440000000  0.4003610000000  0.5243230000000 1.0
C      1  0.5407450000000  0.4003580000000  0.4756690000000 1.0
C      1  0.5407120000000  0.5996480000000  0.5243340000000 1.0
C      1  0.5242970000000  0.4593060000000  0.5996120000000 1.0
C      1  0.4003520000000  0.4756830000000  0.4592510000000 1.0
C      1  0.5407180000000  0.5996130000000  0.4756980000000 1.0
C      1  0.5243240000000  0.5407210000000  0.4003860000000 1.0
C      1  0.4756680000000  0.5407410000000  0.5996500000000 1.0
C      1  0.4756980000000  0.4593260000000  0.4003760000000 1.0
C      1  0.4004250000000  0.5243090000000  0.5406890000000 1.0
C      1  0.5996210000000  0.5243190000000  0.4592900000000 1.0
C      1  0.5996400000000  0.4756570000000  0.5407370000000 1.0
C      1  0.5406900000000  0.4004060000000  0.5242830000000 1.0
C      1  0.4593010000000  0.4004320000000  0.4757100000000 1.0
C      1  0.4593350000000  0.5996310000000  0.5243110000000 1.0
C      1  0.4276450000000  0.4801770000000  0.4355550000000 1.0
C      1  0.4355880000000  0.4277320000000  0.4801920000000 1.0
C      1  0.4801870000000  0.4356420000000  0.4276970000000 1.0
C      1  0.4277350000000  0.5198200000000  0.5643850000000 1.0
C      1  0.5723160000000  0.5198240000000  0.4356050000000 1.0
C      1  0.5723270000000  0.4801530000000  0.5644080000000 1.0
C      1  0.4356450000000  0.5723150000000  0.5198170000000 1.0
C      1  0.5644080000000  0.5723100000000  0.4801940000000 1.0
C      1  0.5644170000000  0.4276950000000  0.5198090000000 1.0
C      1  0.4801670000000  0.5644480000000  0.5723700000000 1.0
C      1  0.5198260000000  0.5644180000000  0.4276830000000 1.0
C      1  0.5198080000000  0.4356150000000  0.5722970000000 1.0
C      1  0.5723410000000  0.4801840000000  0.4356230000000 1.0
C      1  0.5644390000000  0.4276480000000  0.4801700000000 1.0
C      1  0.5198260000000  0.4356250000000  0.4277420000000 1.0
C      1  0.5722590000000  0.5197930000000  0.5643910000000 1.0
C      1  0.4276900000000  0.5198170000000  0.4355460000000 1.0
C      1  0.4276740000000  0.4801820000000  0.5643760000000 1.0
C      1  0.5643940000000  0.5723400000000  0.5198350000000 1.0
C      1  0.4356410000000  0.5722650000000  0.4801780000000 1.0
C      1  0.4355600000000  0.4276610000000  0.5198310000000 1.0
C      1  0.5198070000000  0.5644400000000  0.5723330000000 1.0
C      1  0.4801860000000  0.5644100000000  0.4276380000000 1.0
C      1  0.4801690000000  0.4356070000000  0.5722610000000 1.0
C      1  0.5493690000000  0.5312400000000  0.5916530000000 1.0
C      1  0.5916000000000  0.5493730000000  0.5312580000000 1.0
C      1  0.5312530000000  0.5916930000000  0.5494280000000 1.0
C      1  0.5494060000000  0.4687560000000  0.4083940000000 1.0
C      1  0.4506060000000  0.4687560000000  0.5916050000000 1.0
C      1  0.4506000000000  0.5312530000000  0.4082940000000 1.0
C      1  0.5916670000000  0.4505960000000  0.4687610000000 1.0
C      1  0.4083300000000  0.4506040000000  0.5312400000000 1.0
C      1  0.4083710000000  0.5493820000000  0.4687390000000 1.0
C      1  0.5312590000000  0.4083260000000  0.4505920000000 1.0
C      1  0.4687300000000  0.4083170000000  0.5494040000000 1.0
C      1  0.4687610000000  0.5916230000000  0.4505960000000 1.0
C      1  0.4505900000000  0.5312570000000  0.5916790000000 1.0
C      1  0.4084050000000  0.5493910000000  0.5312360000000 1.0
C      1  0.4687510000000  0.5916710000000  0.5494180000000 1.0
C      1  0.4505930000000  0.4687490000000  0.4083340000000 1.0
C      1  0.5493920000000  0.4687390000000  0.5916430000000 1.0
C      1  0.5494050000000  0.5312520000000  0.4083520000000 1.0
C      1  0.4083120000000  0.4506010000000  0.4687350000000 1.0
C      1  0.5916910000000  0.4505660000000  0.5312650000000 1.0
C      1  0.5916610000000  0.5494020000000  0.4687620000000 1.0
C      1  0.4687590000000  0.4084140000000  0.4506320000000 1.0
C      1  0.5312330000000  0.4083850000000  0.5493640000000 1.0
C      1  0.5312560000000  0.5916560000000  0.4506100000000 1.0
C      1  0.4424480000000  0.4298950000000  0.5420450000000 1.0
C      1  0.5420440000000  0.4425210000000  0.4299640000000 1.0
C      1  0.4299490000000  0.5420250000000  0.4424650000000 1.0
C      1  0.4425340000000  0.5700510000000  0.4579590000000 1.0
C      1  0.5575010000000  0.5701060000000  0.5420500000000 1.0
C      1  0.5575470000000  0.4298950000000  0.4579580000000 1.0
C      1  0.5420140000000  0.5575130000000  0.5700730000000 1.0
C      1  0.4579710000000  0.5575150000000  0.4298700000000 1.0
C      1  0.4579530000000  0.4425100000000  0.5700430000000 1.0
C      1  0.4298770000000  0.4579620000000  0.5574950000000 1.0
C      1  0.5701220000000  0.4579660000000  0.4425120000000 1.0
C      1  0.5700320000000  0.5420080000000  0.5574860000000 1.0
C      1  0.5574920000000  0.4299340000000  0.5420180000000 1.0
C      1  0.4579660000000  0.4425210000000  0.4299030000000 1.0
C      1  0.5700820000000  0.5420380000000  0.4425020000000 1.0
C      1  0.5575080000000  0.5700750000000  0.4579790000000 1.0
C      1  0.4425170000000  0.5701110000000  0.5420400000000 1.0
C      1  0.4425110000000  0.4299720000000  0.4579820000000 1.0
C      1  0.4579570000000  0.5575440000000  0.5701130000000 1.0
C      1  0.5420390000000  0.5575130000000  0.4299260000000 1.0
C      1  0.5420270000000  0.4424940000000  0.5700870000000 1.0
C      1  0.5700990000000  0.4579370000000  0.5575210000000 1.0
C      1  0.4298950000000  0.4579670000000  0.4424650000000 1.0
C      1  0.4299620000000  0.5420350000000  0.5574840000000 1.0
C      1  0.5297360000000  0.4446590000000  0.5771480000000 1.0
C      1  0.5771540000000  0.5297530000000  0.4446600000000 1.0
C      1  0.4446840000000  0.5771710000000  0.5297490000000 1.0
C      1  0.5297550000000  0.5553580000000  0.4228500000000 1.0
C      1  0.4702370000000  0.5553870000000  0.5771980000000 1.0
C      1  0.4702580000000  0.4446840000000  0.4228420000000 1.0
C      1  0.5771750000000  0.4702200000000  0.5553610000000 1.0
C      1  0.4228120000000  0.4702490000000  0.4446170000000 1.0
C      1  0.4229010000000  0.5297440000000  0.5553250000000 1.0
C      1  0.4446610000000  0.4229070000000  0.4702740000000 1.0
C      1  0.5553440000000  0.4228680000000  0.5297270000000 1.0
C      1  0.5553510000000  0.5771470000000  0.4702650000000 1.0
C      1  0.4702470000000  0.4446660000000  0.5771020000000 1.0
C      1  0.4228690000000  0.5297430000000  0.4446170000000 1.0
C      1  0.5553450000000  0.5771840000000  0.5297660000000 1.0
C      1  0.4702550000000  0.5553580000000  0.4227940000000 1.0
C      1  0.5297300000000  0.5553660000000  0.5771540000000 1.0
C      1  0.5297520000000  0.4446820000000  0.4229040000000 1.0
C      1  0.4228190000000  0.4702540000000  0.5553320000000 1.0
C      1  0.5771870000000  0.4702560000000  0.4446720000000 1.0
C      1  0.5770940000000  0.5297160000000  0.5553310000000 1.0
C      1  0.5553840000000  0.4228140000000  0.4702380000000 1.0
C      1  0.4446100000000  0.4228190000000  0.5297630000000 1.0
C      1  0.4446920000000  0.5771110000000  0.4702510000000 1.0
C      1  0.4164280000000  0.4459440000000  0.4804520000000 1.0
C      1  0.4804810000000  0.4165320000000  0.4459370000000 1.0
C      1  0.4458910000000  0.4804690000000  0.4164450000000 1.0
C      1  0.4165300000000  0.5540790000000  0.5195200000000 1.0
C      1  0.5835410000000  0.5540710000000  0.4804720000000 1.0
C      1  0.5835750000000  0.4459070000000  0.5195490000000 1.0
C      1  0.4804670000000  0.5835580000000  0.5541230000000 1.0
C      1  0.5195450000000  0.5835420000000  0.4459300000000 1.0
C      1  0.5195120000000  0.4165030000000  0.5540580000000 1.0
C      1  0.4459400000000  0.5195480000000  0.5835510000000 1.0
C      1  0.5540790000000  0.5195410000000  0.4164720000000 1.0
C      1  0.5540870000000  0.4804540000000  0.5835210000000 1.0
C      1  0.5835490000000  0.4458910000000  0.4804770000000 1.0
C      1  0.5195520000000  0.4164580000000  0.4459450000000 1.0
C      1  0.5540990000000  0.4804740000000  0.4165110000000 1.0
C      1  0.5834890000000  0.5540790000000  0.5195390000000 1.0
C      1  0.4164940000000  0.5540410000000  0.4804510000000 1.0
C      1  0.4164500000000  0.4459030000000  0.5195250000000 1.0
C      1  0.5195380000000  0.5835820000000  0.5541020000000 1.0
C      1  0.4804790000000  0.5835090000000  0.4458950000000 1.0
C      1  0.4804400000000  0.4164440000000  0.5540550000000 1.0
C      1  0.5540330000000  0.5195250000000  0.5835360000000 1.0
C      1  0.4459240000000  0.5195400000000  0.4164080000000 1.0
C      1  0.4459120000000  0.4804770000000  0.5834870000000 1.0
C      1  0.4610950000000  0.4924440000000  0.4025710000000 1.0
C      1  0.4024860000000  0.4610800000000  0.4925580000000 1.0
C      1  0.4924390000000  0.4026330000000  0.4611180000000 1.0
C      1  0.4610710000000  0.5074280000000  0.5974920000000 1.0
C      1  0.5389270000000  0.5074540000000  0.4025510000000 1.0
C      1  0.5388840000000  0.4924240000000  0.5973960000000 1.0
C      1  0.4026390000000  0.5388900000000  0.5075510000000 1.0
C      1  0.5974570000000  0.5389130000000  0.4925650000000 1.0
C      1  0.5975100000000  0.4610560000000  0.5074550000000 1.0
C      1  0.4924530000000  0.5974290000000  0.5389220000000 1.0
C      1  0.5074530000000  0.5974570000000  0.4610850000000 1.0
C      1  0.5075420000000  0.4026080000000  0.5388780000000 1.0
C      1  0.5389090000000  0.4924570000000  0.4026210000000 1.0
C      1  0.5974250000000  0.4610850000000  0.4924580000000 1.0
C      1  0.5074370000000  0.4025200000000  0.4610820000000 1.0
C      1  0.5388990000000  0.5074220000000  0.5974790000000 1.0
C      1  0.4610780000000  0.5074410000000  0.4024910000000 1.0
C      1  0.4611010000000  0.4924310000000  0.5973800000000 1.0
C      1  0.5973730000000  0.5388860000000  0.5075620000000 1.0
C      1  0.4025520000000  0.5389090000000  0.4925540000000 1.0
C      1  0.4025790000000  0.4611060000000  0.5075550000000 1.0
C      1  0.5074500000000  0.5975020000000  0.5389440000000 1.0
C      1  0.4924570000000  0.5973860000000  0.4610980000000 1.0
C      1  0.4925440000000  0.4025090000000  0.5389110000000 1.0
C      1  0.5427660000000  0.4931370000000  0.6109030000000 1.0
C      1  0.6109890000000  0.5426130000000  0.4934690000000 1.0
C      1  0.4931740000000  0.6109410000000  0.5427810000000 1.0
C      1  0.5426420000000  0.5065670000000  0.3890220000000 1.0
C      1  0.4574160000000  0.5064940000000  0.6110310000000 1.0
C      1  0.4572330000000  0.4931610000000  0.3890580000000 1.0
C      1  0.6110490000000  0.4573860000000  0.5065490000000 1.0
C      1  0.3889440000000  0.4574260000000  0.4934730000000 1.0
C      1  0.3891360000000  0.5427870000000  0.5068440000000 1.0
C      1  0.4931160000000  0.3891300000000  0.4572140000000 1.0
C      1  0.5068500000000  0.3891030000000  0.5427660000000 1.0
C      1  0.5065670000000  0.6109900000000  0.4573800000000 1.0
C      1  0.4571970000000  0.4931090000000  0.6108830000000 1.0
C      1  0.3890190000000  0.5425950000000  0.4934590000000 1.0
C      1  0.5065570000000  0.6110390000000  0.5426320000000 1.0
C      1  0.4574010000000  0.5065440000000  0.3889520000000 1.0
C      1  0.5425760000000  0.5065210000000  0.6110150000000 1.0
C      1  0.5427810000000  0.4931830000000  0.3891140000000 1.0
C      1  0.3890700000000  0.4572260000000  0.5068570000000 1.0
C      1  0.6109340000000  0.4572110000000  0.4931650000000 1.0
C      1  0.6108800000000  0.5427650000000  0.5068540000000 1.0
C      1  0.5065010000000  0.3889820000000  0.4574200000000 1.0
C      1  0.4934660000000  0.3889710000000  0.5425780000000 1.0
C      1  0.4931830000000  0.6108950000000  0.4572240000000 1.0
C      1  0.5722000000000  0.4292640000000  0.5615230000000 1.0
C      1  0.5615330000000  0.5722280000000  0.4292930000000 1.0
C      1  0.4292810000000  0.5615280000000  0.5722060000000 1.0
C      1  0.5722270000000  0.5707180000000  0.4384880000000 1.0
C      1  0.4277780000000  0.5707320000000  0.5615180000000 1.0
C      1  0.4277980000000  0.4292880000000  0.4384800000000 1.0
C      1  0.5615090000000  0.4277620000000  0.5707230000000 1.0
C      1  0.4384850000000  0.4277850000000  0.4292760000000 1.0
C      1  0.4384590000000  0.5722420000000  0.5707250000000 1.0
C      1  0.4292800000000  0.4384670000000  0.4277670000000 1.0
C      1  0.5707120000000  0.4384470000000  0.5722310000000 1.0
C      1  0.5707240000000  0.5615290000000  0.4277870000000 1.0
C      1  0.4277450000000  0.4292790000000  0.5615370000000 1.0
C      1  0.4384800000000  0.5722300000000  0.4292650000000 1.0
C      1  0.5707030000000  0.5614990000000  0.5722170000000 1.0
C      1  0.4278000000000  0.5707120000000  0.4384730000000 1.0
C      1  0.5722200000000  0.5707090000000  0.5615390000000 1.0
C      1  0.5722490000000  0.4292760000000  0.4384650000000 1.0
C      1  0.4384600000000  0.4277910000000  0.5707140000000 1.0
C      1  0.5615330000000  0.4277950000000  0.4292880000000 1.0
C      1  0.5615200000000  0.5722090000000  0.5707270000000 1.0
C      1  0.5707410000000  0.4384790000000  0.4277820000000 1.0
C      1  0.4292560000000  0.4384780000000  0.5722240000000 1.0
C      1  0.4292950000000  0.5615280000000  0.4277650000000 1.0
C      1  0.5467050000000  0.3718630000000  0.4930420000000 1.0
C      1  0.4930640000000  0.5466870000000  0.3718490000000 1.0
C      1  0.3718820000000  0.4930680000000  0.5466910000000 1.0
C      1  0.5466930000000  0.6281390000000  0.5069660000000 1.0
C      1  0.4533090000000  0.6281010000000  0.4930070000000 1.0
C      1  0.4532700000000  0.3718770000000  0.5069370000000 1.0
C      1  0.4930040000000  0.4532790000000  0.6280900000000 1.0
C      1  0.5070040000000  0.4532950000000  0.3719090000000 1.0
C      1  0.5069700000000  0.5466970000000  0.6281390000000 1.0
C      1  0.3718770000000  0.5069950000000  0.4532760000000 1.0
C      1  0.6280950000000  0.5069860000000  0.5467170000000 1.0
C      1  0.6281370000000  0.4930410000000  0.4533330000000 1.0
C      1  0.4532800000000  0.3719030000000  0.4929980000000 1.0
C      1  0.5070030000000  0.5466920000000  0.3718640000000 1.0
C      1  0.6281200000000  0.4930470000000  0.5467230000000 1.0
C      1  0.4533160000000  0.6281160000000  0.5069470000000 1.0
C      1  0.5466960000000  0.6281280000000  0.4930270000000 1.0
C      1  0.5466960000000  0.3718820000000  0.5069810000000 1.0
C      1  0.5069430000000  0.4532820000000  0.6281030000000 1.0
C      1  0.4930650000000  0.4533010000000  0.3718930000000 1.0
C      1  0.4930320000000  0.5466980000000  0.6281500000000 1.0
C      1  0.6281330000000  0.5069800000000  0.4533210000000 1.0
C      1  0.3719010000000  0.5070070000000  0.5466990000000 1.0
C      1  0.3718610000000  0.4930560000000  0.4532800000000 1.0
C      1  0.3784400000000  0.4886850000000  0.5342790000000 1.0
C      1  0.5343030000000  0.3784290000000  0.4886470000000 1.0
C      1  0.4886810000000  0.5342810000000  0.3784170000000 1.0
C      1  0.3784510000000  0.5113690000000  0.4656810000000 1.0
C      1  0.6215270000000  0.5113500000000  0.5343050000000 1.0
C      1  0.6215680000000  0.4886680000000  0.4657430000000 1.0
C      1  0.5342860000000  0.6215750000000  0.5113490000000 1.0
C      1  0.4657190000000  0.6215380000000  0.4886300000000 1.0
C      1  0.4656750000000  0.3784350000000  0.5113360000000 1.0
C      1  0.4886280000000  0.4656910000000  0.6215280000000 1.0
C      1  0.5113810000000  0.4657050000000  0.3784720000000 1.0
C      1  0.5113430000000  0.5342940000000  0.6215620000000 1.0
C      1  0.6215650000000  0.4886520000000  0.5343150000000 1.0
C      1  0.4656920000000  0.3784750000000  0.4886380000000 1.0
C      1  0.5113790000000  0.5342880000000  0.3784380000000 1.0
C      1  0.6215640000000  0.5113660000000  0.4657240000000 1.0
C      1  0.3784680000000  0.5113840000000  0.5342910000000 1.0
C      1  0.3784270000000  0.4886720000000  0.4656860000000 1.0
C      1  0.4657280000000  0.6215590000000  0.5113290000000 1.0
C      1  0.5342900000000  0.6215580000000  0.4886510000000 1.0
C      1  0.5342870000000  0.3784580000000  0.5113450000000 1.0
C      1  0.5113270000000  0.4656950000000  0.6215460000000 1.0
C      1  0.4886820000000  0.4657150000000  0.3784480000000 1.0
C      1  0.4886460000000  0.5342950000000  0.6215780000000 1.0
C      1  0.5474700000000  0.4286650000000  0.5717080000000 1.0
C      1  0.5717060000000  0.5474920000000  0.4286780000000 1.0
C      1  0.4286880000000  0.5717260000000  0.5474800000000 1.0
C      1  0.5474960000000  0.5713360000000  0.4283060000000 1.0
C      1  0.4524960000000  0.5713680000000  0.5717250000000 1.0
C      1  0.4525240000000  0.4286920000000  0.4282850000000 1.0
C      1  0.5717090000000  0.4524850000000  0.5713480000000 1.0
C      1  0.4282820000000  0.4525040000000  0.4286420000000 1.0
C      1  0.4283130000000  0.5474900000000  0.5713040000000 1.0
C      1  0.4286950000000  0.4283210000000  0.4525180000000 1.0
C      1  0.5713080000000  0.4282910000000  0.5474860000000 1.0
C      1  0.5713310000000  0.5717000000000  0.4525250000000 1.0
C      1  0.4524980000000  0.4286900000000  0.5716820000000 1.0
C      1  0.4283170000000  0.5474900000000  0.4286460000000 1.0
C      1  0.5713290000000  0.5717120000000  0.5475010000000 1.0
C      1  0.4525180000000  0.5713420000000  0.4282650000000 1.0
C      1  0.5474830000000  0.5713300000000  0.5717080000000 1.0
C      1  0.5474960000000  0.4287000000000  0.4283190000000 1.0
C      1  0.4282660000000  0.4525170000000  0.5713240000000 1.0
C      1  0.5717370000000  0.4525170000000  0.4286850000000 1.0
C      1  0.5716730000000  0.5474610000000  0.5713070000000 1.0
C      1  0.5713740000000  0.4282810000000  0.4525030000000 1.0
C      1  0.4286200000000  0.4282870000000  0.5474990000000 1.0
C      1  0.4287110000000  0.5716860000000  0.4525110000000 1.0
C      1  0.4839720000000  0.4573280000000  0.3892030000000 1.0
C      1  0.3891740000000  0.4839570000000  0.4572930000000 1.0
C      1  0.4573010000000  0.3892400000000  0.4839570000000 1.0
C      1  0.4839370000000  0.5426930000000  0.6108330000000 1.0
C      1  0.5160660000000  0.5426840000000  0.3891950000000 1.0
C      1  0.5160310000000  0.4573070000000  0.6107900000000 1.0
C      1  0.3892340000000  0.5160600000000  0.5426840000000 1.0
C      1  0.6108070000000  0.5160560000000  0.4573280000000 1.0
C      1  0.6108140000000  0.4839360000000  0.5427020000000 1.0
C      1  0.4573400000000  0.6108050000000  0.5160370000000 1.0
C      1  0.5426830000000  0.6108000000000  0.4839600000000 1.0
C      1  0.5426820000000  0.3892160000000  0.5160320000000 1.0
C      1  0.5160610000000  0.4573170000000  0.3892390000000 1.0
C      1  0.6108180000000  0.4839630000000  0.4573480000000 1.0
C      1  0.5426990000000  0.3891760000000  0.4839390000000 1.0
C      1  0.5160370000000  0.5426900000000  0.6108080000000 1.0
C      1  0.4839670000000  0.5426750000000  0.3891630000000 1.0
C      1  0.4839450000000  0.4573020000000  0.6107620000000 1.0
C      1  0.6107610000000  0.5160300000000  0.5426940000000 1.0
C      1  0.3892090000000  0.5160570000000  0.4572870000000 1.0
C      1  0.3891910000000  0.4839740000000  0.5426680000000 1.0
C      1  0.5426770000000  0.6108250000000  0.5160600000000 1.0
C      1  0.4573290000000  0.6107720000000  0.4839490000000 1.0
C      1  0.4572840000000  0.3891840000000  0.5160490000000 1.0
C      1  0.4938840000000  0.4374450000000  0.4259040000000 1.0
C      1  0.4258290000000  0.4938740000000  0.4373410000000 1.0
C      1  0.4373750000000  0.4258920000000  0.4938850000000 1.0
C      1  0.4938630000000  0.5626580000000  0.5741890000000 1.0
C      1  0.5061330000000  0.5626200000000  0.4258460000000 1.0
C      1  0.5061110000000  0.4374190000000  0.5740940000000 1.0
C      1  0.4259080000000  0.5061290000000  0.5625760000000 1.0
C      1  0.5741400000000  0.5061310000000  0.4374110000000 1.0
C      1  0.5741220000000  0.4938500000000  0.5626030000000 1.0
C      1  0.4374540000000  0.5741050000000  0.5061200000000 1.0
C      1  0.5626060000000  0.5741390000000  0.4938870000000 1.0
C      1  0.5626300000000  0.4258590000000  0.5061160000000 1.0
C      1  0.5061340000000  0.4374380000000  0.4259220000000 1.0
C      1  0.5741490000000  0.4938810000000  0.4374200000000 1.0
C      1  0.5626380000000  0.4258400000000  0.4938660000000 1.0
C      1  0.5061140000000  0.5626560000000  0.5741750000000 1.0
C      1  0.4938830000000  0.5626160000000  0.4258290000000 1.0
C      1  0.4938620000000  0.4374150000000  0.5740800000000 1.0
C      1  0.5740940000000  0.5061000000000  0.5625950000000 1.0
C      1  0.4258470000000  0.5061240000000  0.4373370000000 1.0
C      1  0.4258840000000  0.4938790000000  0.5625720000000 1.0
C      1  0.5626000000000  0.5741510000000  0.5061380000000 1.0
C      1  0.4374520000000  0.5740850000000  0.4938700000000 1.0
C      1  0.4373640000000  0.4258630000000  0.5061340000000 1.0
C      1  0.4129740000000  0.5282500000000  0.4546830000000 1.0
C      1  0.4546820000000  0.4129300000000  0.5282710000000 1.0
C      1  0.5282440000000  0.4547420000000  0.4130050000000 1.0
C      1  0.4129370000000  0.4717660000000  0.5452560000000 1.0
C      1  0.5870680000000  0.4717620000000  0.4547490000000 1.0
C      1  0.5869920000000  0.5282090000000  0.5452700000000 1.0
C      1  0.4547540000000  0.5870080000000  0.4717610000000 1.0
C      1  0.5452760000000  0.5870770000000  0.5282770000000 1.0
C      1  0.5453100000000  0.4129270000000  0.4717260000000 1.0
C      1  0.5282380000000  0.5452990000000  0.5870480000000 1.0
C      1  0.4717460000000  0.5452840000000  0.4129080000000 1.0
C      1  0.4717610000000  0.4547280000000  0.5869970000000 1.0
C      1  0.5870480000000  0.5282590000000  0.4547280000000 1.0
C      1  0.5452750000000  0.4129800000000  0.5282140000000 1.0
C      1  0.4717630000000  0.4547510000000  0.4129500000000 1.0
C      1  0.5870690000000  0.4717100000000  0.5452950000000 1.0
C      1  0.4129210000000  0.4717370000000  0.4546870000000 1.0
C      1  0.4130050000000  0.5282340000000  0.5452620000000 1.0
C      1  0.5452830000000  0.5870410000000  0.4717580000000 1.0
C      1  0.4547560000000  0.5870580000000  0.5282450000000 1.0
C      1  0.4547230000000  0.4130110000000  0.4717850000000 1.0
C      1  0.4717240000000  0.5453110000000  0.5870830000000 1.0
C      1  0.5282620000000  0.5452890000000  0.4129580000000 1.0
C      1  0.5282280000000  0.4547290000000  0.5870360000000 1.0
C      1  0.5350680000000  0.5932140000000  0.4643340000000 1.0
C      1  0.4643070000000  0.5350840000000  0.5932510000000 1.0
C      1  0.5932530000000  0.4642880000000  0.5350840000000 1.0
C      1  0.5350670000000  0.4068240000000  0.5356460000000 1.0
C      1  0.4649250000000  0.4068520000000  0.4643490000000 1.0
C      1  0.4649460000000  0.5932280000000  0.5356900000000 1.0
C      1  0.4643200000000  0.4649400000000  0.4067770000000 1.0
C      1  0.5356680000000  0.4649240000000  0.5932030000000 1.0
C      1  0.5356840000000  0.5350690000000  0.4067900000000 1.0
C      1  0.5932210000000  0.5356800000000  0.4649450000000 1.0
C      1  0.4068420000000  0.5356710000000  0.5350640000000 1.0
C      1  0.4067460000000  0.4643190000000  0.4649080000000 1.0
C      1  0.4649470000000  0.5931790000000  0.4643210000000 1.0
C      1  0.5356530000000  0.5350720000000  0.5932170000000 1.0
C      1  0.4067730000000  0.4643290000000  0.5350570000000 1.0
C      1  0.4649030000000  0.4067530000000  0.5356860000000 1.0
C      1  0.5350850000000  0.4067560000000  0.4643100000000 1.0
C      1  0.5350650000000  0.5932550000000  0.5357040000000 1.0
C      1  0.5356840000000  0.4649360000000  0.4068350000000 1.0
C      1  0.4643250000000  0.4649260000000  0.5931630000000 1.0
C      1  0.4643240000000  0.5350660000000  0.4067340000000 1.0
C      1  0.4068050000000  0.5356660000000  0.4649090000000 1.0
C      1  0.5931580000000  0.5356490000000  0.5350740000000 1.0
C      1  0.5932280000000  0.4643210000000  0.4649490000000 1.0
C      1  0.4350030000000  0.4755720000000  0.5755540000000 1.0
C      1  0.5756150000000  0.4349850000000  0.4755650000000 1.0
C      1  0.4755770000000  0.5755810000000  0.4349810000000 1.0
C      1  0.4350280000000  0.5244290000000  0.4243680000000 1.0
C      1  0.5649290000000  0.5244060000000  0.5755740000000 1.0
C      1  0.5650080000000  0.4755740000000  0.4244470000000 1.0
C      1  0.5755630000000  0.5649940000000  0.5244430000000 1.0
C      1  0.4244550000000  0.5649380000000  0.4755680000000 1.0
C      1  0.4243830000000  0.4349960000000  0.5244370000000 1.0
C      1  0.4755560000000  0.4244170000000  0.5649430000000 1.0
C      1  0.5244360000000  0.4244320000000  0.4350590000000 1.0
C      1  0.5244230000000  0.5756180000000  0.5649980000000 1.0
C      1  0.5649940000000  0.4755460000000  0.5755850000000 1.0
C      1  0.4244030000000  0.4350560000000  0.4755730000000 1.0
C      1  0.5244340000000  0.5755940000000  0.4350250000000 1.0
C      1  0.5649810000000  0.5244310000000  0.4244230000000 1.0
C      1  0.4350530000000  0.5244310000000  0.5755770000000 1.0
C      1  0.4349840000000  0.4755640000000  0.4243830000000 1.0
C      1  0.4244640000000  0.5649870000000  0.5244230000000 1.0
C      1  0.5755880000000  0.5649730000000  0.4755860000000 1.0
C      1  0.5756010000000  0.4350180000000  0.5244290000000 1.0
C      1  0.5244160000000  0.4244370000000  0.5649670000000 1.0
C      1  0.4755780000000  0.4244650000000  0.4350270000000 1.0
C      1  0.4755590000000  0.5756220000000  0.5650300000000 1.0
C      1  0.5380480000000  0.5807250000000  0.5678580000000 1.0
C      1  0.5678070000000  0.5380220000000  0.5806910000000 1.0
C      1  0.5807030000000  0.5678450000000  0.5380540000000 1.0
C      1  0.5380520000000  0.4193140000000  0.4321740000000 1.0
C      1  0.4619380000000  0.4193020000000  0.5678250000000 1.0
C      1  0.4619640000000  0.5807180000000  0.4321290000000 1.0
C      1  0.5678690000000  0.4619640000000  0.4193100000000 1.0
C      1  0.4321380000000  0.4619650000000  0.5806960000000 1.0
C      1  0.4321680000000  0.5380520000000  0.4192550000000 1.0
C      1  0.5807530000000  0.4321370000000  0.4619510000000 1.0
C      1  0.4192430000000  0.4321450000000  0.5380490000000 1.0
C      1  0.4193310000000  0.5678190000000  0.4619540000000 1.0
C      1  0.4619410000000  0.5807520000000  0.5678730000000 1.0
C      1  0.4321700000000  0.5380490000000  0.5806920000000 1.0
C      1  0.4193180000000  0.5678550000000  0.5380280000000 1.0
C      1  0.4619720000000  0.4193210000000  0.4321600000000 1.0
C      1  0.5380220000000  0.4192940000000  0.5678330000000 1.0
C      1  0.5380530000000  0.5807170000000  0.4321660000000 1.0
C      1  0.4321360000000  0.4619470000000  0.4192570000000 1.0
C      1  0.5678500000000  0.4619350000000  0.5807250000000 1.0
C      1  0.5678470000000  0.5380480000000  0.4192980000000 1.0
C      1  0.4193000000000  0.4321780000000  0.4619500000000 1.0
C      1  0.5807040000000  0.4321440000000  0.5380530000000 1.0
C      1  0.5807120000000  0.5678410000000  0.4619690000000 1.0
C      1  0.5579400000000  0.5462720000000  0.4480140000000 1.0
C      1  0.4480390000000  0.5579750000000  0.5462830000000 1.0
C      1  0.5462710000000  0.4480110000000  0.5579490000000 1.0
C      1  0.5579510000000  0.4537190000000  0.5520110000000 1.0
C      1  0.4420430000000  0.4537530000000  0.4479770000000 1.0
C      1  0.4421040000000  0.5462890000000  0.5519850000000 1.0
C      1  0.4480180000000  0.4421090000000  0.4537250000000 1.0
C      1  0.5519820000000  0.4420710000000  0.5462680000000 1.0
C      1  0.5519910000000  0.5579380000000  0.4537380000000 1.0
C      1  0.5462720000000  0.5519940000000  0.4420650000000 1.0
C      1  0.4537470000000  0.5520350000000  0.5579620000000 1.0
C      1  0.4537220000000  0.4480420000000  0.4420390000000 1.0
C      1  0.4420930000000  0.5462570000000  0.4479710000000 1.0
C      1  0.5519780000000  0.5579650000000  0.5462720000000 1.0
C      1  0.4537000000000  0.4480170000000  0.5579050000000 1.0
C      1  0.4420140000000  0.4537230000000  0.5519730000000 1.0
C      1  0.5579870000000  0.4537260000000  0.4480370000000 1.0
C      1  0.5579010000000  0.5462700000000  0.5519680000000 1.0
C      1  0.5520440000000  0.4420490000000  0.4537460000000 1.0
C      1  0.4479550000000  0.4420460000000  0.5462600000000 1.0
C      1  0.4480500000000  0.5579180000000  0.4537020000000 1.0
C      1  0.4537490000000  0.5519920000000  0.4420110000000 1.0
C      1  0.5462440000000  0.5520060000000  0.5579290000000 1.0
C      1  0.5463000000000  0.4480240000000  0.4421030000000 1.0
C      1  0.5540580000000  0.3844460000000  0.4921580000000 1.0
C      1  0.4921770000000  0.5540400000000  0.3844320000000 1.0
C      1  0.3844670000000  0.4921770000000  0.5540380000000 1.0
C      1  0.5540420000000  0.6155540000000  0.5078490000000 1.0
C      1  0.4459650000000  0.6155100000000  0.4921510000000 1.0
C      1  0.4459230000000  0.3844620000000  0.5078280000000 1.0
C      1  0.4921440000000  0.4459350000000  0.6154990000000 1.0
C      1  0.5078590000000  0.4459520000000  0.3845010000000 1.0
C      1  0.5078330000000  0.5540530000000  0.6155560000000 1.0
C      1  0.3844630000000  0.5078520000000  0.4459250000000 1.0
C      1  0.6155040000000  0.5078370000000  0.5540620000000 1.0
C      1  0.6155540000000  0.4921620000000  0.4459790000000 1.0
C      1  0.4459310000000  0.3844920000000  0.4921450000000 1.0
C      1  0.5078600000000  0.5540440000000  0.3844490000000 1.0
C      1  0.6155320000000  0.4921550000000  0.5540660000000 1.0
C      1  0.4459710000000  0.6155280000000  0.5078330000000 1.0
C      1  0.5540450000000  0.6155410000000  0.4921670000000 1.0
C      1  0.5540500000000  0.3844670000000  0.5078400000000 1.0
C      1  0.5078260000000  0.4459380000000  0.6155140000000 1.0
C      1  0.4921770000000  0.4459580000000  0.3844820000000 1.0
C      1  0.4921500000000  0.5540540000000  0.6155690000000 1.0
C      1  0.6155470000000  0.5078440000000  0.4459700000000 1.0
C      1  0.3844910000000  0.5078590000000  0.5540460000000 1.0
C      1  0.3844440000000  0.4921690000000  0.4459280000000 1.0
C      1  0.5000330000000  0.5259270000000  0.3779860000000 1.0
C      1  0.3780030000000  0.5000400000000  0.5259290000000 1.0
C      1  0.5259380000000  0.3779990000000  0.4999910000000 1.0
C      1  0.4999760000000  0.4740480000000  0.6219910000000 1.0
C      1  0.5000350000000  0.4740660000000  0.3780080000000 1.0
C      1  0.3779970000000  0.5000230000000  0.4740410000000 1.0
C      1  0.6219950000000  0.4999980000000  0.5259530000000 1.0
C      1  0.6220110000000  0.5000230000000  0.4740900000000 1.0
C      1  0.5259310000000  0.6220100000000  0.4999980000000 1.0
C      1  0.4740800000000  0.6219990000000  0.4999760000000 1.0
C      1  0.4740400000000  0.3780070000000  0.4999920000000 1.0
C      1  0.4999940000000  0.5259370000000  0.6220090000000 1.0
END
