TITL C-731043-5360-12 -0.0214371618126513 1000000 -3827.80089737819 0 0 540 (C1) n - 1
REM
REM in /scratch/bkarasulu/Only-C240/Try5-OnlyC540
REM
REM
REM
REM
REM
REM ./C.cell (44946988efc617adc4c7d3233e6f571a)
REM
REM compiler GCC version 9.2.1 20190827 (Red Hat 9.2.1-1)
REM options -cpp -mtune=generic -march=x86-64 -g -O0 -fpre-include=/usr/include/finclude/math-vector-fortran.h
REM seed 122660030 -1575593068 -1128797618 -1962955140 -378456079 723773231 2081628126 1008770988 76100651 683102914 -453440490 219053674 1636424880 59134425 -1004916919 116545091 -1003735854 -42088625 2146967812 -591512966 1869164235 928687836 -1042701934 655328993 -1390939171 256904070 -1716347874 -1771222711 1544480975 321190877 2076835179 -45404112 -232676460
REM
CELL 1.54180  100.00000  100.00000  100.00000   90.00000   90.00000   90.00000
LATT -1
SFAC C  
C      1  0.4757800000000  0.4053750000000  0.5504220000000 1.0
C      1  0.4063870000000  0.5496220000000  0.4758910000000 1.0
C      1  0.5502990000000  0.4769860000000  0.4053400000000 1.0
C      1  0.5226140000000  0.4054140000000  0.4509540000000 1.0
C      1  0.5233540000000  0.5948980000000  0.5497600000000 1.0
C      1  0.4757600000000  0.5946700000000  0.4500160000000 1.0
C      1  0.5950780000000  0.5490370000000  0.5224200000000 1.0
C      1  0.5962140000000  0.4498340000000  0.4760040000000 1.0
C      1  0.4059380000000  0.4497740000000  0.5244490000000 1.0
C      1  0.4502670000000  0.4760090000000  0.5941530000000 1.0
C      1  0.4505140000000  0.5245870000000  0.4051230000000 1.0
C      1  0.5500950000000  0.5238540000000  0.5956260000000 1.0
C      1  0.5486470000000  0.4063250000000  0.4775300000000 1.0
C      1  0.4771010000000  0.5504050000000  0.4053960000000 1.0
C      1  0.4052370000000  0.4764140000000  0.5501990000000 1.0
C      1  0.4500070000000  0.4050410000000  0.5237630000000 1.0
C      1  0.5498130000000  0.5950770000000  0.5231240000000 1.0
C      1  0.4498480000000  0.5951160000000  0.4764910000000 1.0
C      1  0.5235530000000  0.5502930000000  0.5964270000000 1.0
C      1  0.4771040000000  0.4501910000000  0.5943820000000 1.0
C      1  0.5237030000000  0.4504950000000  0.4046990000000 1.0
C      1  0.5971900000000  0.4763640000000  0.4495620000000 1.0
C      1  0.4065620000000  0.5228020000000  0.4500610000000 1.0
C      1  0.5939170000000  0.5223820000000  0.5483740000000 1.0
C      1  0.5007140000000  0.6314360000000  0.4898830000000 1.0
C      1  0.6326460000000  0.4895750000000  0.5009480000000 1.0
C      1  0.4864500000000  0.5064220000000  0.6281660000000 1.0
C      1  0.4930700000000  0.6280070000000  0.5132230000000 1.0
C      1  0.4928620000000  0.3717760000000  0.4873040000000 1.0
C      1  0.5006020000000  0.3684390000000  0.5106460000000 1.0
C      1  0.3696420000000  0.4896180000000  0.4987380000000 1.0
C      1  0.3728040000000  0.5130330000000  0.5062810000000 1.0
C      1  0.6293320000000  0.5129110000000  0.4931280000000 1.0
C      1  0.5142560000000  0.5076900000000  0.3723400000000 1.0
C      1  0.5098190000000  0.4987150000000  0.6315410000000 1.0
C      1  0.4909360000000  0.5001760000000  0.3685130000000 1.0
C      1  0.4899620000000  0.6315100000000  0.5007050000000 1.0
C      1  0.5066850000000  0.4861650000000  0.6282510000000 1.0
C      1  0.6328660000000  0.5003570000000  0.4901630000000 1.0
C      1  0.5132570000000  0.6279910000000  0.4929380000000 1.0
C      1  0.4898460000000  0.3682880000000  0.4998580000000 1.0
C      1  0.5130970000000  0.3721070000000  0.5075780000000 1.0
C      1  0.4938990000000  0.4875650000000  0.3718090000000 1.0
C      1  0.5017850000000  0.5108980000000  0.3687810000000 1.0
C      1  0.4989940000000  0.5095120000000  0.6315650000000 1.0
C      1  0.3694220000000  0.5005060000000  0.5094410000000 1.0
C      1  0.6288850000000  0.4926590000000  0.5134060000000 1.0
C      1  0.3731900000000  0.4926360000000  0.4862220000000 1.0
C      1  0.4706970000000  0.5736340000000  0.4099150000000 1.0
C      1  0.5708140000000  0.4127010000000  0.4691440000000 1.0
C      1  0.4098720000000  0.4701420000000  0.5734940000000 1.0
C      1  0.5303560000000  0.5731000000000  0.5896870000000 1.0
C      1  0.5314350000000  0.4278440000000  0.4119910000000 1.0
C      1  0.4705760000000  0.4268020000000  0.5902800000000 1.0
C      1  0.4267370000000  0.4096190000000  0.5299850000000 1.0
C      1  0.4266450000000  0.5902390000000  0.4701100000000 1.0
C      1  0.5724210000000  0.5878980000000  0.5310130000000 1.0
C      1  0.5903060000000  0.4697260000000  0.4267730000000 1.0
C      1  0.5873960000000  0.5307800000000  0.5704730000000 1.0
C      1  0.4106340000000  0.5294300000000  0.4266850000000 1.0
C      1  0.4113660000000  0.5731920000000  0.4690730000000 1.0
C      1  0.4692020000000  0.4110480000000  0.5737300000000 1.0
C      1  0.5734520000000  0.4696840000000  0.4111670000000 1.0
C      1  0.5880690000000  0.5713820000000  0.5309210000000 1.0
C      1  0.4113060000000  0.4264250000000  0.5310900000000 1.0
C      1  0.5877650000000  0.4278490000000  0.4681450000000 1.0
C      1  0.5312130000000  0.4122920000000  0.4286060000000 1.0
C      1  0.4693410000000  0.5891280000000  0.4266440000000 1.0
C      1  0.5305420000000  0.5888480000000  0.5729350000000 1.0
C      1  0.4267670000000  0.4691730000000  0.5889490000000 1.0
C      1  0.5721610000000  0.5317470000000  0.5873460000000 1.0
C      1  0.4271380000000  0.5309710000000  0.4108700000000 1.0
C      1  0.5157110000000  0.6211690000000  0.5047350000000 1.0
C      1  0.6217470000000  0.5043190000000  0.5155540000000 1.0
C      1  0.5081960000000  0.5182100000000  0.6249600000000 1.0
C      1  0.4811920000000  0.6249210000000  0.4915430000000 1.0
C      1  0.4810870000000  0.3749450000000  0.5089920000000 1.0
C      1  0.5154200000000  0.3790580000000  0.4958370000000 1.0
C      1  0.3798900000000  0.5045010000000  0.4837850000000 1.0
C      1  0.3759340000000  0.4914040000000  0.5183210000000 1.0
C      1  0.6262860000000  0.4912020000000  0.4813710000000 1.0
C      1  0.4925690000000  0.5195580000000  0.3754460000000 1.0
C      1  0.4949290000000  0.4838590000000  0.6213290000000 1.0
C      1  0.5055910000000  0.4849490000000  0.3787430000000 1.0
C      1  0.5048540000000  0.6211790000000  0.5156490000000 1.0
C      1  0.5184980000000  0.5079170000000  0.6248920000000 1.0
C      1  0.6220180000000  0.5152720000000  0.5046450000000 1.0
C      1  0.4914720000000  0.6248250000000  0.4812210000000 1.0
C      1  0.5045080000000  0.3788530000000  0.4848640000000 1.0
C      1  0.4913620000000  0.3750440000000  0.5193300000000 1.0
C      1  0.4822040000000  0.5093200000000  0.3751620000000 1.0
C      1  0.5165220000000  0.4957880000000  0.3790220000000 1.0
C      1  0.4840600000000  0.4946380000000  0.6213210000000 1.0
C      1  0.3796450000000  0.5154630000000  0.4945060000000 1.0
C      1  0.6260910000000  0.4808900000000  0.4916660000000 1.0
C      1  0.3761490000000  0.4810200000000  0.5081090000000 1.0
C      1  0.4298930000000  0.5226400000000  0.5608150000000 1.0
C      1  0.5225750000000  0.5609720000000  0.4311230000000 1.0
C      1  0.5625590000000  0.4301400000000  0.5232850000000 1.0
C      1  0.5716270000000  0.5225730000000  0.4394790000000 1.0
C      1  0.5702520000000  0.4764940000000  0.5620180000000 1.0
C      1  0.4321520000000  0.4770510000000  0.4384720000000 1.0
C      1  0.4775150000000  0.5608180000000  0.5705870000000 1.0
C      1  0.4766730000000  0.4377540000000  0.4287220000000 1.0
C      1  0.5231580000000  0.4387030000000  0.5693530000000 1.0
C      1  0.4396410000000  0.4299310000000  0.4778880000000 1.0
C      1  0.4392360000000  0.5704690000000  0.5226910000000 1.0
C      1  0.5627200000000  0.5707880000000  0.4762240000000 1.0
C      1  0.5624880000000  0.5229040000000  0.4311950000000 1.0
C      1  0.4307400000000  0.5615400000000  0.5227410000000 1.0
C      1  0.5226860000000  0.4299510000000  0.5606780000000 1.0
C      1  0.4387380000000  0.5227200000000  0.5694010000000 1.0
C      1  0.5616120000000  0.4771350000000  0.5708050000000 1.0
C      1  0.4406320000000  0.4775810000000  0.4295380000000 1.0
C      1  0.5716530000000  0.5622890000000  0.4760090000000 1.0
C      1  0.4312040000000  0.4389280000000  0.4781310000000 1.0
C      1  0.5714530000000  0.4386720000000  0.5227170000000 1.0
C      1  0.4763520000000  0.4290580000000  0.4374560000000 1.0
C      1  0.5223100000000  0.5696790000000  0.4398620000000 1.0
C      1  0.4772350000000  0.5694180000000  0.5617490000000 1.0
C      1  0.5685970000000  0.4530880000000  0.4405950000000 1.0
C      1  0.4460380000000  0.4328880000000  0.5772980000000 1.0
C      1  0.4330180000000  0.5770800000000  0.4457100000000 1.0
C      1  0.4230860000000  0.4457110000000  0.5673820000000 1.0
C      1  0.4233760000000  0.5540530000000  0.4328420000000 1.0
C      1  0.5646910000000  0.5466250000000  0.5558330000000 1.0
C      1  0.5512730000000  0.4375390000000  0.4286170000000 1.0
C      1  0.5470240000000  0.5592930000000  0.5680300000000 1.0
C      1  0.4461150000000  0.5673460000000  0.4228260000000 1.0
C      1  0.5626550000000  0.5713000000000  0.5508210000000 1.0
C      1  0.5563270000000  0.4354910000000  0.4532820000000 1.0
C      1  0.4328780000000  0.4227480000000  0.5545090000000 1.0
C      1  0.4347090000000  0.4427440000000  0.5785640000000 1.0
C      1  0.5672320000000  0.4441270000000  0.4520940000000 1.0
C      1  0.4428930000000  0.5785110000000  0.4343780000000 1.0
C      1  0.5633590000000  0.4476340000000  0.4278770000000 1.0
C      1  0.4348470000000  0.5573960000000  0.4214410000000 1.0
C      1  0.5559900000000  0.5477970000000  0.5666920000000 1.0
C      1  0.4217280000000  0.4343190000000  0.5575680000000 1.0
C      1  0.5654410000000  0.5573430000000  0.5459140000000 1.0
C      1  0.4219720000000  0.5653630000000  0.4426980000000 1.0
C      1  0.5525030000000  0.5720330000000  0.5628600000000 1.0
C      1  0.4427620000000  0.4214270000000  0.5658460000000 1.0
C      1  0.5463760000000  0.4348120000000  0.4425900000000 1.0
C      1  0.4549100000000  0.5568380000000  0.4161160000000 1.0
C      1  0.5515870000000  0.4222230000000  0.4583130000000 1.0
C      1  0.4163270000000  0.4543820000000  0.5567880000000 1.0
C      1  0.5433460000000  0.5549730000000  0.5816620000000 1.0
C      1  0.5446830000000  0.4462290000000  0.4179180000000 1.0
C      1  0.4547940000000  0.4435230000000  0.5838840000000 1.0
C      1  0.4434480000000  0.4160120000000  0.5458030000000 1.0
C      1  0.4434980000000  0.5839320000000  0.4544390000000 1.0
C      1  0.5539990000000  0.5819970000000  0.5442020000000 1.0
C      1  0.5822570000000  0.4566960000000  0.4448870000000 1.0
C      1  0.5779950000000  0.5416100000000  0.5511780000000 1.0
C      1  0.4168340000000  0.5452330000000  0.4434420000000 1.0
C      1  0.4160530000000  0.5559110000000  0.4528610000000 1.0
C      1  0.4528680000000  0.4153580000000  0.5564650000000 1.0
C      1  0.5552030000000  0.4554910000000  0.4174460000000 1.0
C      1  0.5785930000000  0.5521040000000  0.5412320000000 1.0
C      1  0.4156990000000  0.4436900000000  0.5474070000000 1.0
C      1  0.5811240000000  0.4473100000000  0.4560820000000 1.0
C      1  0.5415990000000  0.4217090000000  0.4478540000000 1.0
C      1  0.4529450000000  0.5846330000000  0.4438070000000 1.0
C      1  0.5447120000000  0.5825190000000  0.5546940000000 1.0
C      1  0.4441010000000  0.4529360000000  0.5845220000000 1.0
C      1  0.5527340000000  0.5437840000000  0.5805640000000 1.0
C      1  0.4443000000000  0.5473670000000  0.4153450000000 1.0
C      1  0.4484230000000  0.4050080000000  0.5096460000000 1.0
C      1  0.4070290000000  0.5087080000000  0.4482120000000 1.0
C      1  0.5096570000000  0.4482280000000  0.4047110000000 1.0
C      1  0.5514220000000  0.4058280000000  0.4914380000000 1.0
C      1  0.5520910000000  0.5948840000000  0.5090840000000 1.0
C      1  0.4481740000000  0.5951980000000  0.4906080000000 1.0
C      1  0.5944540000000  0.5084730000000  0.5511340000000 1.0
C      1  0.5969120000000  0.4904670000000  0.4480600000000 1.0
C      1  0.4051560000000  0.4905440000000  0.5517930000000 1.0
C      1  0.4912090000000  0.4483800000000  0.5941170000000 1.0
C      1  0.4912000000000  0.5520340000000  0.4056710000000 1.0
C      1  0.5094550000000  0.5518400000000  0.5959940000000 1.0
C      1  0.5087160000000  0.4049970000000  0.4482790000000 1.0
C      1  0.4495150000000  0.5103830000000  0.4053770000000 1.0
C      1  0.4066840000000  0.4486760000000  0.5102890000000 1.0
C      1  0.4899710000000  0.4058020000000  0.5514860000000 1.0
C      1  0.5092810000000  0.5942320000000  0.5515210000000 1.0
C      1  0.4899410000000  0.5941140000000  0.4490450000000 1.0
C      1  0.5519380000000  0.5097100000000  0.5955500000000 1.0
C      1  0.4488390000000  0.4901630000000  0.5935090000000 1.0
C      1  0.5520430000000  0.4910400000000  0.4062570000000 1.0
C      1  0.5961560000000  0.4480210000000  0.4901480000000 1.0
C      1  0.4069690000000  0.5510740000000  0.4900470000000 1.0
C      1  0.5956730000000  0.5517180000000  0.5085310000000 1.0
C      1  0.4806020000000  0.5310000000000  0.3899070000000 1.0
C      1  0.5286990000000  0.3915710000000  0.4816330000000 1.0
C      1  0.3901480000000  0.4796640000000  0.5303670000000 1.0
C      1  0.5202630000000  0.5303650000000  0.6112080000000 1.0
C      1  0.5197340000000  0.4711520000000  0.3908910000000 1.0
C      1  0.4809370000000  0.4704950000000  0.6085880000000 1.0
C      1  0.4695090000000  0.3896050000000  0.5205790000000 1.0
C      1  0.4694550000000  0.6104820000000  0.4797960000000 1.0
C      1  0.5292880000000  0.6089920000000  0.5190380000000 1.0
C      1  0.6121950000000  0.4794190000000  0.4693480000000 1.0
C      1  0.6089010000000  0.5183770000000  0.5286030000000 1.0
C      1  0.3924000000000  0.5187370000000  0.4703780000000 1.0
C      1  0.3921330000000  0.5290930000000  0.4803310000000 1.0
C      1  0.4795400000000  0.3895980000000  0.5309440000000 1.0
C      1  0.5299000000000  0.4813380000000  0.3912440000000 1.0
C      1  0.6093080000000  0.5286740000000  0.5185280000000 1.0
C      1  0.3903300000000  0.4693080000000  0.5203370000000 1.0
C      1  0.6120310000000  0.4691280000000  0.4795360000000 1.0
C      1  0.5185990000000  0.3912540000000  0.4713520000000 1.0
C      1  0.4795540000000  0.6104010000000  0.4695030000000 1.0
C      1  0.5191220000000  0.6089120000000  0.5292300000000 1.0
C      1  0.4706040000000  0.4804740000000  0.6086640000000 1.0
C      1  0.5305640000000  0.5201990000000  0.6111490000000 1.0
C      1  0.4702360000000  0.5209750000000  0.3895840000000 1.0
C      1  0.5894490000000  0.5528710000000  0.4886420000000 1.0
C      1  0.5518860000000  0.4898850000000  0.5886330000000 1.0
C      1  0.4895880000000  0.5871340000000  0.5518900000000 1.0
C      1  0.4136430000000  0.5513680000000  0.5098880000000 1.0
C      1  0.4136810000000  0.4491870000000  0.4905300000000 1.0
C      1  0.5893540000000  0.4482270000000  0.5100290000000 1.0
C      1  0.4501490000000  0.4904520000000  0.4118420000000 1.0
C      1  0.4486640000000  0.5099630000000  0.5867240000000 1.0
C      1  0.5523850000000  0.5106650000000  0.4136010000000 1.0
C      1  0.5097800000000  0.5873700000000  0.4497030000000 1.0
C      1  0.5098930000000  0.4123820000000  0.5508870000000 1.0
C      1  0.4888710000000  0.4114070000000  0.4471340000000 1.0
C      1  0.4897890000000  0.5513340000000  0.5887500000000 1.0
C      1  0.5881120000000  0.4886220000000  0.5523050000000 1.0
C      1  0.5528860000000  0.5880940000000  0.4892850000000 1.0
C      1  0.5108460000000  0.5515170000000  0.4127700000000 1.0
C      1  0.4898120000000  0.4474210000000  0.4113110000000 1.0
C      1  0.5109220000000  0.4481690000000  0.5872240000000 1.0
C      1  0.4142290000000  0.4891090000000  0.4480060000000 1.0
C      1  0.5899700000000  0.5102510000000  0.4486410000000 1.0
C      1  0.4118830000000  0.5103210000000  0.5513510000000 1.0
C      1  0.4486140000000  0.5885310000000  0.5104090000000 1.0
C      1  0.5526480000000  0.4123120000000  0.5112340000000 1.0
C      1  0.4489340000000  0.4116400000000  0.4898390000000 1.0
C      1  0.5253520000000  0.6056770000000  0.4828880000000 1.0
C      1  0.6064720000000  0.4820980000000  0.5252650000000 1.0
C      1  0.4840150000000  0.5247550000000  0.6068820000000 1.0
C      1  0.4749370000000  0.6068630000000  0.5160100000000 1.0
C      1  0.4747620000000  0.3927180000000  0.4841740000000 1.0
C      1  0.5253470000000  0.3944450000000  0.5178560000000 1.0
C      1  0.3959010000000  0.4826230000000  0.4747930000000 1.0
C      1  0.3939190000000  0.5158290000000  0.5246670000000 1.0
C      1  0.6087030000000  0.5158890000000  0.4746870000000 1.0
C      1  0.5167800000000  0.5255690000000  0.3939960000000 1.0
C      1  0.5171580000000  0.4748520000000  0.6058190000000 1.0
C      1  0.4835630000000  0.4751110000000  0.3938030000000 1.0
C      1  0.4828870000000  0.6056700000000  0.5252640000000 1.0
C      1  0.5253280000000  0.4839290000000  0.6068610000000 1.0
C      1  0.6073850000000  0.5254140000000  0.4822960000000 1.0
C      1  0.5158710000000  0.6066030000000  0.4751630000000 1.0
C      1  0.4824000000000  0.3937870000000  0.4746460000000 1.0
C      1  0.5158210000000  0.3931920000000  0.5254680000000 1.0
C      1  0.4758800000000  0.4846270000000  0.3928430000000 1.0
C      1  0.5259610000000  0.5175270000000  0.3950330000000 1.0
C      1  0.4749030000000  0.5166410000000  0.6056630000000 1.0
C      1  0.3950380000000  0.5249310000000  0.5165290000000 1.0
C      1  0.6079360000000  0.4743560000000  0.5158730000000 1.0
C      1  0.3947990000000  0.4747780000000  0.4841430000000 1.0
C      1  0.4730260000000  0.4622280000000  0.5999110000000 1.0
C      1  0.4616880000000  0.6010930000000  0.4723670000000 1.0
C      1  0.6028870000000  0.4719430000000  0.4614740000000 1.0
C      1  0.5277370000000  0.4627020000000  0.3993720000000 1.0
C      1  0.5278800000000  0.5383260000000  0.6020910000000 1.0
C      1  0.4730310000000  0.5386310000000  0.3992710000000 1.0
C      1  0.5376440000000  0.6005110000000  0.5271210000000 1.0
C      1  0.5366990000000  0.4004890000000  0.4736410000000 1.0
C      1  0.4618110000000  0.3990700000000  0.5279660000000 1.0
C      1  0.3994030000000  0.4722410000000  0.5383040000000 1.0
C      1  0.4009660000000  0.5267730000000  0.4621070000000 1.0
C      1  0.5998550000000  0.5263170000000  0.5364990000000 1.0
C      1  0.6026260000000  0.4615220000000  0.4718750000000 1.0
C      1  0.4718900000000  0.6009900000000  0.4618470000000 1.0
C      1  0.4624210000000  0.4723350000000  0.5999450000000 1.0
C      1  0.3996110000000  0.4616590000000  0.5281620000000 1.0
C      1  0.6003490000000  0.5368240000000  0.5263170000000 1.0
C      1  0.4007540000000  0.5373940000000  0.4722020000000 1.0
C      1  0.5273070000000  0.6004140000000  0.5375680000000 1.0
C      1  0.4719410000000  0.3990950000000  0.5385520000000 1.0
C      1  0.5264790000000  0.4000930000000  0.4631600000000 1.0
C      1  0.5381490000000  0.4730680000000  0.3997200000000 1.0
C      1  0.4624420000000  0.5285060000000  0.3989990000000 1.0
C      1  0.5383190000000  0.5279330000000  0.6019210000000 1.0
C      1  0.5521690000000  0.5803520000000  0.4775380000000 1.0
C      1  0.5802520000000  0.4769870000000  0.5517040000000 1.0
C      1  0.4783090000000  0.5505360000000  0.5806120000000 1.0
C      1  0.4494350000000  0.5805470000000  0.5219820000000 1.0
C      1  0.4496710000000  0.4195960000000  0.4782510000000 1.0
C      1  0.5521160000000  0.4203050000000  0.5227790000000 1.0
C      1  0.4222990000000  0.4776350000000  0.4488690000000 1.0
C      1  0.4198880000000  0.5218750000000  0.5505460000000 1.0
C      1  0.5820370000000  0.5218740000000  0.4493880000000 1.0
C      1  0.5222180000000  0.5506780000000  0.4210390000000 1.0
C      1  0.5225450000000  0.4489450000000  0.5793720000000 1.0
C      1  0.4780180000000  0.4480920000000  0.4189490000000 1.0
C      1  0.4779250000000  0.5793260000000  0.5513790000000 1.0
C      1  0.5512360000000  0.4782210000000  0.5806950000000 1.0
C      1  0.5817450000000  0.5521840000000  0.4768970000000 1.0
C      1  0.5215470000000  0.5796690000000  0.4502170000000 1.0
C      1  0.4771770000000  0.4192170000000  0.4478120000000 1.0
C      1  0.5217250000000  0.4200290000000  0.5503260000000 1.0
C      1  0.4507380000000  0.4785920000000  0.4193900000000 1.0
C      1  0.5518530000000  0.5222510000000  0.4215540000000 1.0
C      1  0.4491630000000  0.5218000000000  0.5791910000000 1.0
C      1  0.4210850000000  0.5510020000000  0.5217850000000 1.0
C      1  0.5814770000000  0.4489270000000  0.5217500000000 1.0
C      1  0.4215750000000  0.4496150000000  0.4788770000000 1.0
C      1  0.5853980000000  0.5742550000000  0.5050360000000 1.0
C      1  0.5738330000000  0.5054780000000  0.5845560000000 1.0
C      1  0.5048710000000  0.5839990000000  0.5739200000000 1.0
C      1  0.4160450000000  0.5737200000000  0.4951230000000 1.0
C      1  0.4163390000000  0.4265190000000  0.5050490000000 1.0
C      1  0.5849750000000  0.4262770000000  0.4944270000000 1.0
C      1  0.4275100000000  0.5048590000000  0.4152480000000 1.0
C      1  0.4263160000000  0.4951990000000  0.5841280000000 1.0
C      1  0.5745190000000  0.4953420000000  0.4162290000000 1.0
C      1  0.4954000000000  0.5842830000000  0.4270210000000 1.0
C      1  0.4953160000000  0.4155710000000  0.5735160000000 1.0
C      1  0.5053360000000  0.4151150000000  0.4256730000000 1.0
C      1  0.5047580000000  0.5736810000000  0.5848610000000 1.0
C      1  0.5842120000000  0.5049600000000  0.5737010000000 1.0
C      1  0.5747990000000  0.5849510000000  0.5051420000000 1.0
C      1  0.4961490000000  0.5741500000000  0.4160590000000 1.0
C      1  0.5055520000000  0.4255700000000  0.4148310000000 1.0
C      1  0.4960500000000  0.4257670000000  0.5844120000000 1.0
C      1  0.4167120000000  0.5040060000000  0.4255500000000 1.0
C      1  0.5856010000000  0.4953500000000  0.4263710000000 1.0
C      1  0.4153000000000  0.4956930000000  0.5740140000000 1.0
C      1  0.4260500000000  0.5848310000000  0.4956670000000 1.0
C      1  0.5740880000000  0.4159310000000  0.4949480000000 1.0
C      1  0.4263690000000  0.4154470000000  0.5044650000000 1.0
C      1  0.5319680000000  0.4597300000000  0.5813280000000 1.0
C      1  0.4600440000000  0.5818730000000  0.5316620000000 1.0
C      1  0.5838460000000  0.5318740000000  0.4596370000000 1.0
C      1  0.4690410000000  0.4593160000000  0.4173500000000 1.0
C      1  0.4687360000000  0.5398150000000  0.5818590000000 1.0
C      1  0.5319820000000  0.5401110000000  0.4196770000000 1.0
C      1  0.5408680000000  0.5817080000000  0.4685640000000 1.0
C      1  0.5410660000000  0.4187380000000  0.5319770000000 1.0
C      1  0.4598830000000  0.4177570000000  0.4681990000000 1.0
C      1  0.4185690000000  0.5314470000000  0.5398390000000 1.0
C      1  0.4206750000000  0.4683860000000  0.4598780000000 1.0
C      1  0.5821470000000  0.4676670000000  0.5407860000000 1.0
C      1  0.5828050000000  0.4594440000000  0.5316200000000 1.0
C      1  0.5315680000000  0.5815580000000  0.4604660000000 1.0
C      1  0.4598740000000  0.5312710000000  0.5812320000000 1.0
C      1  0.4202910000000  0.4600970000000  0.4690020000000 1.0
C      1  0.5835870000000  0.5411350000000  0.4677570000000 1.0
C      1  0.4191180000000  0.5403000000000  0.5312810000000 1.0
C      1  0.4684790000000  0.5812590000000  0.5406270000000 1.0
C      1  0.5317450000000  0.4184120000000  0.5400290000000 1.0
C      1  0.4680270000000  0.4177360000000  0.4589390000000 1.0
C      1  0.5409820000000  0.5316770000000  0.4199940000000 1.0
C      1  0.4609710000000  0.4686210000000  0.4173710000000 1.0
C      1  0.5404760000000  0.4686360000000  0.5819620000000 1.0
C      1  0.5850640000000  0.5649110000000  0.5735230000000 1.0
C      1  0.5525950000000  0.5832100000000  0.5844220000000 1.0
C      1  0.5766790000000  0.5771870000000  0.5530240000000 1.0
C      1  0.4152040000000  0.5519690000000  0.4196960000000 1.0
C      1  0.4150160000000  0.4478120000000  0.5806140000000 1.0
C      1  0.5848540000000  0.4475580000000  0.4166150000000 1.0
C      1  0.4481830000000  0.5806010000000  0.4147310000000 1.0
C      1  0.4480890000000  0.4197760000000  0.5855260000000 1.0
C      1  0.5534040000000  0.4235040000000  0.4227460000000 1.0
C      1  0.4196960000000  0.5850310000000  0.4477470000000 1.0
C      1  0.4196340000000  0.4146410000000  0.5524030000000 1.0
C      1  0.5739060000000  0.4150610000000  0.4349760000000 1.0
C      1  0.5839160000000  0.5537750000000  0.5799950000000 1.0
C      1  0.5833820000000  0.5729390000000  0.5638370000000 1.0
C      1  0.5588430000000  0.5790090000000  0.5742700000000 1.0
C      1  0.4230890000000  0.5610740000000  0.4130810000000 1.0
C      1  0.5747330000000  0.4412880000000  0.4208480000000 1.0
C      1  0.4231330000000  0.4389130000000  0.5871900000000 1.0
C      1  0.4132430000000  0.5768540000000  0.4388190000000 1.0
C      1  0.5803480000000  0.4161220000000  0.4461380000000 1.0
C      1  0.4130870000000  0.4227150000000  0.5613510000000 1.0
C      1  0.4391310000000  0.5870970000000  0.4227350000000 1.0
C      1  0.5642120000000  0.4167770000000  0.4269630000000 1.0
C      1  0.4390430000000  0.4131120000000  0.5776190000000 1.0
C      1  0.4214830000000  0.4823020000000  0.5886760000000 1.0
C      1  0.4826250000000  0.5888280000000  0.4217760000000 1.0
C      1  0.5880830000000  0.4218750000000  0.4808780000000 1.0
C      1  0.5791700000000  0.4824420000000  0.4114940000000 1.0
C      1  0.5781790000000  0.5190300000000  0.5876860000000 1.0
C      1  0.4222320000000  0.5177090000000  0.4110270000000 1.0
C      1  0.5177860000000  0.5885610000000  0.5786510000000 1.0
C      1  0.5188970000000  0.4114000000000  0.4217530000000 1.0
C      1  0.4824430000000  0.4112440000000  0.5786910000000 1.0
C      1  0.4116700000000  0.4214370000000  0.5178520000000 1.0
C      1  0.4115180000000  0.5784920000000  0.4821970000000 1.0
C      1  0.5889890000000  0.5782360000000  0.5186010000000 1.0
C      1  0.5897220000000  0.4824450000000  0.4211460000000 1.0
C      1  0.4208890000000  0.5892930000000  0.4827960000000 1.0
C      1  0.4832070000000  0.4208930000000  0.5892270000000 1.0
C      1  0.4107760000000  0.4828560000000  0.5791950000000 1.0
C      1  0.5878820000000  0.5185790000000  0.5772680000000 1.0
C      1  0.4117650000000  0.5168290000000  0.4207420000000 1.0
C      1  0.5790430000000  0.5885300000000  0.5186430000000 1.0
C      1  0.4211160000000  0.4107320000000  0.5172290000000 1.0
C      1  0.5776240000000  0.4122150000000  0.4813390000000 1.0
C      1  0.5190440000000  0.4212530000000  0.4113720000000 1.0
C      1  0.4834150000000  0.5793120000000  0.4111450000000 1.0
C      1  0.5176730000000  0.5787900000000  0.5890950000000 1.0
C      1  0.4409960000000  0.5345120000000  0.4104680000000 1.0
C      1  0.5324180000000  0.4123870000000  0.4427540000000 1.0
C      1  0.4110020000000  0.4402950000000  0.5345350000000 1.0
C      1  0.5582730000000  0.5335900000000  0.5885820000000 1.0
C      1  0.5595110000000  0.4669690000000  0.4107460000000 1.0
C      1  0.4407200000000  0.4658450000000  0.5892110000000 1.0
C      1  0.4657470000000  0.4106250000000  0.5598630000000 1.0
C      1  0.4657940000000  0.5894530000000  0.4404880000000 1.0
C      1  0.5332850000000  0.5893270000000  0.5589810000000 1.0
C      1  0.5890930000000  0.4417200000000  0.4662810000000 1.0
C      1  0.5879920000000  0.5572290000000  0.5321430000000 1.0
C      1  0.4112680000000  0.5592320000000  0.4657490000000 1.0
C      1  0.4111380000000  0.5325980000000  0.4404860000000 1.0
C      1  0.4404870000000  0.4100800000000  0.5332940000000 1.0
C      1  0.5334900000000  0.4417850000000  0.4108480000000 1.0
C      1  0.5869980000000  0.5321170000000  0.5565190000000 1.0
C      1  0.4103110000000  0.4668740000000  0.5597310000000 1.0
C      1  0.5907910000000  0.4669220000000  0.4406000000000 1.0
C      1  0.5568570000000  0.4131670000000  0.4677910000000 1.0
C      1  0.4404270000000  0.5899250000000  0.4669100000000 1.0
C      1  0.5584820000000  0.5890140000000  0.5329950000000 1.0
C      1  0.4673790000000  0.4405950000000  0.5897100000000 1.0
C      1  0.5330890000000  0.5592570000000  0.5901590000000 1.0
C      1  0.4674550000000  0.5598720000000  0.4103160000000 1.0
C      1  0.5439530000000  0.5970730000000  0.4969820000000 1.0
C      1  0.5971600000000  0.4962750000000  0.5433860000000 1.0
C      1  0.4977110000000  0.5432190000000  0.5984220000000 1.0
C      1  0.4567510000000  0.5979640000000  0.5022890000000 1.0
C      1  0.4569750000000  0.4021230000000  0.4979940000000 1.0
C      1  0.5436330000000  0.4033090000000  0.5036470000000 1.0
C      1  0.4049700000000  0.4967940000000  0.4566030000000 1.0
C      1  0.4025390000000  0.5022010000000  0.5431160000000 1.0
C      1  0.5996540000000  0.5021670000000  0.4566230000000 1.0
C      1  0.5029070000000  0.5434810000000  0.4030730000000 1.0
C      1  0.5031050000000  0.4567520000000  0.5963900000000 1.0
C      1  0.4975660000000  0.4563830000000  0.4024090000000 1.0
C      1  0.4972240000000  0.5964500000000  0.5432680000000 1.0
C      1  0.5436220000000  0.4977850000000  0.5982190000000 1.0
C      1  0.5983550000000  0.5438720000000  0.4963510000000 1.0
C      1  0.5016630000000  0.5969470000000  0.4576860000000 1.0
C      1  0.4965300000000  0.4024790000000  0.4561500000000 1.0
C      1  0.5016900000000  0.4028650000000  0.5429070000000 1.0
C      1  0.4581860000000  0.4986910000000  0.4024330000000 1.0
C      1  0.5437930000000  0.5030930000000  0.4041990000000 1.0
C      1  0.4571950000000  0.5021660000000  0.5959280000000 1.0
C      1  0.4045990000000  0.5427110000000  0.5020500000000 1.0
C      1  0.5990190000000  0.4563140000000  0.5020230000000 1.0
C      1  0.4040720000000  0.4572740000000  0.4984980000000 1.0
C      1  0.4942640000000  0.3940780000000  0.4671150000000 1.0
C      1  0.3945010000000  0.4671430000000  0.4958440000000 1.0
C      1  0.4681970000000  0.4963340000000  0.3928960000000 1.0
C      1  0.5041160000000  0.3931610000000  0.5330890000000 1.0
C      1  0.5041450000000  0.6066100000000  0.4675280000000 1.0
C      1  0.4947880000000  0.6053170000000  0.5327350000000 1.0
C      1  0.6082740000000  0.4665700000000  0.5042600000000 1.0
C      1  0.6068320000000  0.5329400000000  0.4941610000000 1.0
C      1  0.3955110000000  0.5323760000000  0.5046170000000 1.0
C      1  0.5332030000000  0.4954920000000  0.6072700000000 1.0
C      1  0.5333820000000  0.5056140000000  0.3952380000000 1.0
C      1  0.4674220000000  0.5047520000000  0.6051410000000 1.0
C      1  0.4671240000000  0.3927320000000  0.4958810000000 1.0
C      1  0.4953340000000  0.4673910000000  0.3940230000000 1.0
C      1  0.3961380000000  0.4944200000000  0.4671600000000 1.0
C      1  0.5328090000000  0.3947730000000  0.5059530000000 1.0
C      1  0.4670750000000  0.6071510000000  0.5044490000000 1.0
C      1  0.5330360000000  0.6055340000000  0.4946730000000 1.0
C      1  0.5053360000000  0.4672670000000  0.6053200000000 1.0
C      1  0.4955130000000  0.5327270000000  0.6073880000000 1.0
C      1  0.5051970000000  0.5333650000000  0.3937100000000 1.0
C      1  0.6058710000000  0.4940230000000  0.5326850000000 1.0
C      1  0.3935250000000  0.5043310000000  0.5326320000000 1.0
C      1  0.6088590000000  0.5042320000000  0.4669490000000 1.0
C      1  0.5009150000000  0.5610450000000  0.5883620000000 1.0
C      1  0.5621620000000  0.5879390000000  0.5008730000000 1.0
C      1  0.5874930000000  0.5003810000000  0.5612890000000 1.0
C      1  0.4997640000000  0.5613150000000  0.4130790000000 1.0
C      1  0.4996550000000  0.4386360000000  0.5870920000000 1.0
C      1  0.5013880000000  0.4381820000000  0.4116240000000 1.0
C      1  0.4388430000000  0.5880070000000  0.4993090000000 1.0
C      1  0.4391790000000  0.4122750000000  0.5009320000000 1.0
C      1  0.5616420000000  0.4127440000000  0.4994920000000 1.0
C      1  0.4141380000000  0.5003560000000  0.4384340000000 1.0
C      1  0.4122530000000  0.4992680000000  0.5611720000000 1.0
C      1  0.5892630000000  0.4991140000000  0.4389750000000 1.0
C      1  0.5887870000000  0.5618760000000  0.5004030000000 1.0
C      1  0.5009860000000  0.5869140000000  0.5612090000000 1.0
C      1  0.5613320000000  0.5012500000000  0.5880910000000 1.0
C      1  0.4138270000000  0.5607860000000  0.4986270000000 1.0
C      1  0.5886140000000  0.4387500000000  0.4986720000000 1.0
C      1  0.4139480000000  0.4394610000000  0.5015670000000 1.0
C      1  0.4987830000000  0.5868590000000  0.4399500000000 1.0
C      1  0.5006340000000  0.4118980000000  0.4380850000000 1.0
C      1  0.4988610000000  0.4129680000000  0.5606230000000 1.0
C      1  0.4403960000000  0.5014370000000  0.4124810000000 1.0
C      1  0.5617570000000  0.4992800000000  0.4136120000000 1.0
C      1  0.4392230000000  0.4987180000000  0.5864910000000 1.0
C      1  0.3884460000000  0.5267560000000  0.4933490000000 1.0
C      1  0.5276620000000  0.4944620000000  0.3879830000000 1.0
C      1  0.4925530000000  0.3850940000000  0.5290460000000 1.0
C      1  0.6132220000000  0.5266230000000  0.5055780000000 1.0
C      1  0.6162020000000  0.4709820000000  0.4926720000000 1.0
C      1  0.3861690000000  0.4712370000000  0.5072010000000 1.0
C      1  0.4729070000000  0.4935010000000  0.6123430000000 1.0
C      1  0.4722970000000  0.5079970000000  0.3850120000000 1.0
C      1  0.5286170000000  0.5070210000000  0.6151940000000 1.0
C      1  0.5055930000000  0.3875460000000  0.4734450000000 1.0
C      1  0.5060460000000  0.6123370000000  0.5269260000000 1.0
C      1  0.4926160000000  0.6147610000000  0.4715050000000 1.0
C      1  0.4936830000000  0.5291890000000  0.3855870000000 1.0
C      1  0.3857060000000  0.4926760000000  0.5283010000000 1.0
C      1  0.5266180000000  0.3880180000000  0.4946780000000 1.0
C      1  0.5071210000000  0.5283040000000  0.6152810000000 1.0
C      1  0.4939380000000  0.4727940000000  0.6122960000000 1.0
C      1  0.5066880000000  0.4734740000000  0.3873540000000 1.0
C      1  0.6165380000000  0.4924740000000  0.4713550000000 1.0
C      1  0.3889280000000  0.5056710000000  0.4727100000000 1.0
C      1  0.6125940000000  0.5053650000000  0.5265900000000 1.0
C      1  0.4713750000000  0.3849800000000  0.5076150000000 1.0
C      1  0.5270360000000  0.6124060000000  0.5059500000000 1.0
C      1  0.4713580000000  0.6150020000000  0.4927990000000 1.0
C      1  0.4618820000000  0.5832080000000  0.4156220000000 1.0
C      1  0.5803950000000  0.4184970000000  0.4595290000000 1.0
C      1  0.4617640000000  0.4171650000000  0.5846680000000 1.0
C      1  0.5838280000000  0.4614290000000  0.4171500000000 1.0
C      1  0.4158020000000  0.4615140000000  0.5831040000000 1.0
C      1  0.4161680000000  0.5383090000000  0.4170570000000 1.0
C      1  0.5387230000000  0.5827330000000  0.5833050000000 1.0
C      1  0.5401170000000  0.4197200000000  0.4200540000000 1.0
C      1  0.4171240000000  0.4154360000000  0.5386820000000 1.0
C      1  0.4171380000000  0.5842130000000  0.4614350000000 1.0
C      1  0.5805330000000  0.5798940000000  0.5397620000000 1.0
C      1  0.5815420000000  0.5403820000000  0.5800320000000 1.0
END
