TITL C-731043-5360-5 -4.22883203190963 1000000 -4024.69225481987 0 0 540 (C1) n - 1
REM
REM in /scratch/bkarasulu/Only-C240/Try5-OnlyC540
REM
REM
REM
REM
REM
REM ./C.cell (44946988efc617adc4c7d3233e6f571a)
REM
REM compiler GCC version 9.2.1 20190827 (Red Hat 9.2.1-1)
REM options -cpp -mtune=generic -march=x86-64 -g -O0 -fpre-include=/usr/include/finclude/math-vector-fortran.h
REM seed 108838627 1448868160 -377006404 1996424725 1118435293 310618852 1887379147 -1075668165 -333805339 284872599 -564360468 451640631 1700999981 1602410775 -673895642 936447345 -2019738468 344709523 449809527 -1677993312 -1876178438 -180575373 -371620030 609425309 697689988 2042377686 2038388862 -376573665 -702458377 -734998416 -1503027159 -398859980 150492638
REM
CELL 1.54180  100.00000  100.00000  100.00000   90.00000   90.00000   90.00000
LATT -1
SFAC C  
C      1  0.5082850000000  0.3906290000000  0.4675380000000 1.0
C      1  0.4723410000000  0.5125570000000  0.3986330000000 1.0
C      1  0.3941920000000  0.4731830000000  0.5146370000000 1.0
C      1  0.4921030000000  0.3861520000000  0.5280610000000 1.0
C      1  0.5128870000000  0.6078480000000  0.5234830000000 1.0
C      1  0.4922010000000  0.6103720000000  0.4657640000000 1.0
C      1  0.5300740000000  0.5072360000000  0.6062110000000 1.0
C      1  0.4692430000000  0.4906140000000  0.6052560000000 1.0
C      1  0.5274550000000  0.4869250000000  0.3987990000000 1.0
C      1  0.6077340000000  0.4740250000000  0.4895150000000 1.0
C      1  0.3923840000000  0.5271020000000  0.4893740000000 1.0
C      1  0.6044940000000  0.5283410000000  0.5147310000000 1.0
C      1  0.4731040000000  0.3913210000000  0.5108050000000 1.0
C      1  0.3869070000000  0.5082060000000  0.4720980000000 1.0
C      1  0.5083690000000  0.4693580000000  0.3953580000000 1.0
C      1  0.5270020000000  0.3939780000000  0.4855640000000 1.0
C      1  0.5315130000000  0.6139580000000  0.5060230000000 1.0
C      1  0.4747870000000  0.6054120000000  0.4847690000000 1.0
C      1  0.6076340000000  0.5094200000000  0.5326060000000 1.0
C      1  0.6127910000000  0.4930120000000  0.4722540000000 1.0
C      1  0.3911060000000  0.4919540000000  0.5326620000000 1.0
C      1  0.4867830000000  0.4715100000000  0.6015440000000 1.0
C      1  0.4914020000000  0.5300010000000  0.3945710000000 1.0
C      1  0.5124450000000  0.5261600000000  0.6023850000000 1.0
C      1  0.5635650000000  0.4143380000000  0.5098630000000 1.0
C      1  0.5133090000000  0.5564070000000  0.4229980000000 1.0
C      1  0.4229470000000  0.5129760000000  0.5552290000000 1.0
C      1  0.4359670000000  0.4141480000000  0.4892710000000 1.0
C      1  0.5620290000000  0.5862390000000  0.4868430000000 1.0
C      1  0.4385710000000  0.5851460000000  0.5097030000000 1.0
C      1  0.4893650000000  0.5633640000000  0.5814140000000 1.0
C      1  0.5110300000000  0.4358570000000  0.5793340000000 1.0
C      1  0.4867390000000  0.4441910000000  0.4250370000000 1.0
C      1  0.5853950000000  0.5131300000000  0.4422870000000 1.0
C      1  0.4143680000000  0.4873640000000  0.4427720000000 1.0
C      1  0.5767770000000  0.4870890000000  0.5555860000000 1.0
C      1  0.5126140000000  0.4137070000000  0.5575720000000 1.0
C      1  0.4159450000000  0.5637640000000  0.5109340000000 1.0
C      1  0.5633010000000  0.5113450000000  0.4204600000000 1.0
C      1  0.4867540000000  0.4221690000000  0.4449630000000 1.0
C      1  0.4894220000000  0.5854510000000  0.5594580000000 1.0
C      1  0.5134600000000  0.5792230000000  0.4422070000000 1.0
C      1  0.5834570000000  0.5638080000000  0.4894420000000 1.0
C      1  0.5854320000000  0.4365500000000  0.5109870000000 1.0
C      1  0.4140770000000  0.4363450000000  0.4903610000000 1.0
C      1  0.4446970000000  0.5126330000000  0.5753940000000 1.0
C      1  0.4366100000000  0.4886750000000  0.4210900000000 1.0
C      1  0.5551410000000  0.4865040000000  0.5759520000000 1.0
C      1  0.5585890000000  0.4206310000000  0.5339420000000 1.0
C      1  0.5385660000000  0.5563650000000  0.4249230000000 1.0
C      1  0.4256930000000  0.5381720000000  0.5547830000000 1.0
C      1  0.4399830000000  0.4220960000000  0.4655760000000 1.0
C      1  0.5599490000000  0.5791580000000  0.4627630000000 1.0
C      1  0.4437270000000  0.5786600000000  0.5337310000000 1.0
C      1  0.4654620000000  0.5592900000000  0.5742810000000 1.0
C      1  0.5355670000000  0.4394840000000  0.5739230000000 1.0
C      1  0.4614780000000  0.4440900000000  0.4270600000000 1.0
C      1  0.5795150000000  0.5375520000000  0.4444720000000 1.0
C      1  0.4202170000000  0.4629600000000  0.4455050000000 1.0
C      1  0.5749840000000  0.4618040000000  0.5550450000000 1.0
C      1  0.5369160000000  0.4199560000000  0.5547630000000 1.0
C      1  0.4239700000000  0.5596460000000  0.5345570000000 1.0
C      1  0.5600130000000  0.5360730000000  0.4250920000000 1.0
C      1  0.4615100000000  0.4243270000000  0.4453350000000 1.0
C      1  0.4654180000000  0.5786680000000  0.5547460000000 1.0
C      1  0.5386950000000  0.5767960000000  0.4424470000000 1.0
C      1  0.5787750000000  0.5595710000000  0.4647670000000 1.0
C      1  0.5774710000000  0.4404000000000  0.5346980000000 1.0
C      1  0.4205040000000  0.4412550000000  0.4662970000000 1.0
C      1  0.4451360000000  0.5378980000000  0.5731590000000 1.0
C      1  0.4398940000000  0.4640910000000  0.4264320000000 1.0
C      1  0.5553570000000  0.4612940000000  0.5734700000000 1.0
C      1  0.5138940000000  0.4507980000000  0.4174730000000 1.0
C      1  0.4053310000000  0.5140070000000  0.4499570000000 1.0
C      1  0.4405430000000  0.4037290000000  0.5151990000000 1.0
C      1  0.4837930000000  0.4393070000000  0.5879420000000 1.0
C      1  0.5157030000000  0.5591870000000  0.5911670000000 1.0
C      1  0.4861000000000  0.5493270000000  0.4160870000000 1.0
C      1  0.5844490000000  0.5144350000000  0.5499170000000 1.0
C      1  0.4142230000000  0.4860330000000  0.5498510000000 1.0
C      1  0.5947250000000  0.4867170000000  0.4498300000000 1.0
C      1  0.5597390000000  0.4059700000000  0.4830760000000 1.0
C      1  0.4419400000000  0.5938770000000  0.4830270000000 1.0
C      1  0.5534640000000  0.5955670000000  0.5129920000000 1.0
C      1  0.4056980000000  0.4402650000000  0.5171290000000 1.0
C      1  0.4402050000000  0.5158450000000  0.4123370000000 1.0
C      1  0.5138450000000  0.4138550000000  0.4503370000000 1.0
C      1  0.5957730000000  0.4413070000000  0.4850730000000 1.0
C      1  0.5906880000000  0.5604280000000  0.5170150000000 1.0
C      1  0.4051620000000  0.5594890000000  0.4850490000000 1.0
C      1  0.5488410000000  0.5133870000000  0.5843080000000 1.0
C      1  0.5597910000000  0.4840360000000  0.4121800000000 1.0
C      1  0.4508050000000  0.4853750000000  0.5830000000000 1.0
C      1  0.4861040000000  0.4044460000000  0.5502690000000 1.0
C      1  0.4863800000000  0.5874320000000  0.4480940000000 1.0
C      1  0.5155650000000  0.5956010000000  0.5562140000000 1.0
C      1  0.4607100000000  0.5974550000000  0.5275230000000 1.0
C      1  0.5290580000000  0.4563790000000  0.5929640000000 1.0
C      1  0.5984870000000  0.5331590000000  0.4617330000000 1.0
C      1  0.5435550000000  0.5993210000000  0.4660350000000 1.0
C      1  0.4570920000000  0.4025370000000  0.4697730000000 1.0
C      1  0.5425750000000  0.4008520000000  0.5280200000000 1.0
C      1  0.4671900000000  0.4602780000000  0.4078090000000 1.0
C      1  0.5327090000000  0.5394530000000  0.4063640000000 1.0
C      1  0.4706660000000  0.5421220000000  0.5935890000000 1.0
C      1  0.4048750000000  0.5328800000000  0.5406090000000 1.0
C      1  0.5954800000000  0.4678890000000  0.5407040000000 1.0
C      1  0.4006230000000  0.4675640000000  0.4619050000000 1.0
C      1  0.5332680000000  0.5980310000000  0.4561120000000 1.0
C      1  0.5967400000000  0.4578460000000  0.5305040000000 1.0
C      1  0.4604470000000  0.5320540000000  0.5930040000000 1.0
C      1  0.4709740000000  0.5975450000000  0.5375930000000 1.0
C      1  0.4671720000000  0.4036610000000  0.4595930000000 1.0
C      1  0.5325830000000  0.4003410000000  0.5383140000000 1.0
C      1  0.4009520000000  0.4575540000000  0.4721870000000 1.0
C      1  0.4039830000000  0.5429560000000  0.5304110000000 1.0
C      1  0.5977920000000  0.5432350000000  0.4719250000000 1.0
C      1  0.5427770000000  0.5292040000000  0.4064920000000 1.0
C      1  0.5391830000000  0.4665670000000  0.5928580000000 1.0
C      1  0.4570700000000  0.4704710000000  0.4075810000000 1.0
C      1  0.4188200000000  0.5349080000000  0.4483780000000 1.0
C      1  0.4391380000000  0.4165330000000  0.5352150000000 1.0
C      1  0.5349540000000  0.4490750000000  0.4301120000000 1.0
C      1  0.5713930000000  0.5353050000000  0.5509810000000 1.0
C      1  0.4266310000000  0.4647700000000  0.5502310000000 1.0
C      1  0.5815230000000  0.4657220000000  0.4484090000000 1.0
C      1  0.5622000000000  0.4200820000000  0.4641060000000 1.0
C      1  0.4387130000000  0.5803210000000  0.4637620000000 1.0
C      1  0.5536820000000  0.5820030000000  0.5338490000000 1.0
C      1  0.4645320000000  0.4380900000000  0.5738830000000 1.0
C      1  0.5354300000000  0.5618560000000  0.5782080000000 1.0
C      1  0.4652140000000  0.5513270000000  0.4290890000000 1.0
C      1  0.4391160000000  0.5352820000000  0.4262000000000 1.0
C      1  0.5349150000000  0.4266060000000  0.4500070000000 1.0
C      1  0.4197340000000  0.4375930000000  0.5361250000000 1.0
C      1  0.5499690000000  0.5347000000000  0.5720230000000 1.0
C      1  0.5611410000000  0.4648640000000  0.4263450000000 1.0
C      1  0.4489480000000  0.4643750000000  0.5702720000000 1.0
C      1  0.4651760000000  0.4177660000000  0.5517710000000 1.0
C      1  0.4654590000000  0.5742830000000  0.4485620000000 1.0
C      1  0.5355480000000  0.5829230000000  0.5588240000000 1.0
C      1  0.5829900000000  0.4397570000000  0.4650460000000 1.0
C      1  0.5756650000000  0.5616320000000  0.5355620000000 1.0
C      1  0.4177050000000  0.5609610000000  0.4648630000000 1.0
C      1  0.5436750000000  0.5050280000000  0.6060540000000 1.0
C      1  0.5995430000000  0.5410970000000  0.5161090000000 1.0
C      1  0.5142270000000  0.6028370000000  0.5362180000000 1.0
C      1  0.4595160000000  0.5142990000000  0.4033840000000 1.0
C      1  0.5403300000000  0.4853190000000  0.4034610000000 1.0
C      1  0.4557000000000  0.4930140000000  0.6049500000000 1.0
C      1  0.3974720000000  0.5397440000000  0.4873900000000 1.0
C      1  0.6029550000000  0.4612620000000  0.4875120000000 1.0
C      1  0.3988880000000  0.4603600000000  0.5159910000000 1.0
C      1  0.4939800000000  0.6095630000000  0.4520970000000 1.0
C      1  0.5060280000000  0.3916540000000  0.4539750000000 1.0
C      1  0.4946990000000  0.3846790000000  0.5413980000000 1.0
C      1  0.6066810000000  0.5070480000000  0.5461260000000 1.0
C      1  0.5141000000000  0.5390410000000  0.5978740000000 1.0
C      1  0.5449870000000  0.6153330000000  0.5041620000000 1.0
C      1  0.3854260000000  0.5056220000000  0.4587520000000 1.0
C      1  0.3921390000000  0.4941980000000  0.5462280000000 1.0
C      1  0.6143560000000  0.4955340000000  0.4589190000000 1.0
C      1  0.4936900000000  0.5435470000000  0.3942890000000 1.0
C      1  0.4851450000000  0.4586870000000  0.5967730000000 1.0
C      1  0.5060720000000  0.4558030000000  0.3955750000000 1.0
C      1  0.4620570000000  0.6004730000000  0.4837520000000 1.0
C      1  0.4603940000000  0.3962470000000  0.5128000000000 1.0
C      1  0.5397460000000  0.3988790000000  0.4842160000000 1.0
C      1  0.6011690000000  0.4712000000000  0.4669020000000 1.0
C      1  0.4592710000000  0.5963850000000  0.4704150000000 1.0
C      1  0.4715910000000  0.4566730000000  0.5923520000000 1.0
C      1  0.4030430000000  0.4698850000000  0.5365480000000 1.0
C      1  0.5950800000000  0.5311710000000  0.5365970000000 1.0
C      1  0.3988570000000  0.5298440000000  0.4667280000000 1.0
C      1  0.5354380000000  0.6016080000000  0.5276090000000 1.0
C      1  0.4585700000000  0.3998720000000  0.5264270000000 1.0
C      1  0.5419690000000  0.4035880000000  0.4709400000000 1.0
C      1  0.5304300000000  0.4646850000000  0.4072500000000 1.0
C      1  0.4694980000000  0.5349920000000  0.4066130000000 1.0
C      1  0.5276230000000  0.5413130000000  0.5939310000000 1.0
C      1  0.4645020000000  0.4686630000000  0.5931960000000 1.0
C      1  0.4706440000000  0.5975810000000  0.4626010000000 1.0
C      1  0.5993560000000  0.4594000000000  0.4738850000000 1.0
C      1  0.5424040000000  0.4718010000000  0.4079680000000 1.0
C      1  0.5348040000000  0.5294400000000  0.5947150000000 1.0
C      1  0.4575350000000  0.5279200000000  0.4076400000000 1.0
C      1  0.5277460000000  0.5993900000000  0.5388650000000 1.0
C      1  0.5301530000000  0.4029290000000  0.4636670000000 1.0
C      1  0.4703770000000  0.3979480000000  0.5333960000000 1.0
C      1  0.4035330000000  0.4580580000000  0.5292760000000 1.0
C      1  0.4009690000000  0.5416020000000  0.4737310000000 1.0
C      1  0.5944660000000  0.5431030000000  0.5294250000000 1.0
C      1  0.4704100000000  0.4447760000000  0.5855650000000 1.0
C      1  0.5937390000000  0.4734790000000  0.4554630000000 1.0
C      1  0.4469860000000  0.5904950000000  0.4697670000000 1.0
C      1  0.5277360000000  0.4546170000000  0.4166870000000 1.0
C      1  0.4722870000000  0.5453440000000  0.4157030000000 1.0
C      1  0.5288820000000  0.5536910000000  0.5882040000000 1.0
C      1  0.4129330000000  0.4722200000000  0.5461420000000 1.0
C      1  0.5852420000000  0.5283220000000  0.5462210000000 1.0
C      1  0.4063410000000  0.5273550000000  0.4553680000000 1.0
C      1  0.5470880000000  0.5943670000000  0.5258910000000 1.0
C      1  0.4465420000000  0.4061670000000  0.5282550000000 1.0
C      1  0.5542250000000  0.4095940000000  0.4700620000000 1.0
C      1  0.5932400000000  0.4472900000000  0.4720300000000 1.0
C      1  0.4544600000000  0.4714790000000  0.5837680000000 1.0
C      1  0.4726990000000  0.5882220000000  0.4524520000000 1.0
C      1  0.4093660000000  0.4457170000000  0.5301560000000 1.0
C      1  0.4073880000000  0.5535650000000  0.4719080000000 1.0
C      1  0.5876110000000  0.5549630000000  0.5302610000000 1.0
C      1  0.5543570000000  0.4706710000000  0.4146740000000 1.0
C      1  0.5449670000000  0.5271630000000  0.5853870000000 1.0
C      1  0.4456890000000  0.5292530000000  0.4144930000000 1.0
C      1  0.5289370000000  0.5931720000000  0.5509880000000 1.0
C      1  0.5276730000000  0.4127810000000  0.4540690000000 1.0
C      1  0.4728060000000  0.4054490000000  0.5447530000000 1.0
C      1  0.6099760000000  0.4793500000000  0.5025480000000 1.0
C      1  0.5041070000000  0.6123470000000  0.4737080000000 1.0
C      1  0.4776350000000  0.5024530000000  0.6062950000000 1.0
C      1  0.3903550000000  0.4783810000000  0.5018730000000 1.0
C      1  0.6084260000000  0.5230340000000  0.5019720000000 1.0
C      1  0.3900110000000  0.5218690000000  0.5024190000000 1.0
C      1  0.5000920000000  0.6099830000000  0.5175290000000 1.0
C      1  0.5039600000000  0.3864350000000  0.5197920000000 1.0
C      1  0.4965530000000  0.3891380000000  0.4759410000000 1.0
C      1  0.5219070000000  0.4998110000000  0.3956650000000 1.0
C      1  0.4778500000000  0.4995870000000  0.3957810000000 1.0
C      1  0.5216030000000  0.4954250000000  0.6067060000000 1.0
C      1  0.4997130000000  0.4769480000000  0.6046670000000 1.0
C      1  0.4803750000000  0.6086310000000  0.4975380000000 1.0
C      1  0.6123080000000  0.5048760000000  0.4805140000000 1.0
C      1  0.4964690000000  0.4777110000000  0.3945460000000 1.0
C      1  0.4994920000000  0.5208090000000  0.6053040000000 1.0
C      1  0.5033010000000  0.5216390000000  0.3939260000000 1.0
C      1  0.5239140000000  0.6141460000000  0.4937760000000 1.0
C      1  0.5218740000000  0.3900280000000  0.4983230000000 1.0
C      1  0.4783740000000  0.3889870000000  0.4977720000000 1.0
C      1  0.3898280000000  0.5037130000000  0.5242620000000 1.0
C      1  0.3870430000000  0.4963590000000  0.4803890000000 1.0
C      1  0.6093350000000  0.4976300000000  0.5243020000000 1.0
C      1  0.5235170000000  0.4441390000000  0.4368180000000 1.0
C      1  0.4219240000000  0.5244510000000  0.4396810000000 1.0
C      1  0.4278400000000  0.4168780000000  0.5264360000000 1.0
C      1  0.4747860000000  0.4288080000000  0.5712910000000 1.0
C      1  0.5262300000000  0.5729330000000  0.5786580000000 1.0
C      1  0.4767170000000  0.5567240000000  0.4352750000000 1.0
C      1  0.5645520000000  0.5237270000000  0.5553440000000 1.0
C      1  0.4340780000000  0.4760610000000  0.5543650000000 1.0
C      1  0.5785100000000  0.4759220000000  0.4393680000000 1.0
C      1  0.5732690000000  0.4192940000000  0.4732710000000 1.0
C      1  0.4278710000000  0.5811660000000  0.4731980000000 1.0
C      1  0.5632140000000  0.5791200000000  0.5240710000000 1.0
C      1  0.4188240000000  0.4265450000000  0.5269510000000 1.0
C      1  0.4299410000000  0.5250140000000  0.4290660000000 1.0
C      1  0.5235070000000  0.4338790000000  0.4458900000000 1.0
C      1  0.5828120000000  0.4284370000000  0.4738030000000 1.0
C      1  0.5736800000000  0.5709950000000  0.5252440000000 1.0
C      1  0.4181940000000  0.5721820000000  0.4737580000000 1.0
C      1  0.5547330000000  0.5234580000000  0.5648820000000 1.0
C      1  0.5704350000000  0.4751440000000  0.4288140000000 1.0
C      1  0.4442460000000  0.4758900000000  0.5635410000000 1.0
C      1  0.4754710000000  0.4207820000000  0.5606970000000 1.0
C      1  0.4768180000000  0.5672550000000  0.4440110000000 1.0
C      1  0.5261790000000  0.5826150000000  0.5696410000000 1.0
C      1  0.4834590000000  0.4752350000000  0.4000820000000 1.0
C      1  0.3927810000000  0.4835820000000  0.4772550000000 1.0
C      1  0.4733480000000  0.3943850000000  0.4850660000000 1.0
C      1  0.5129270000000  0.4722800000000  0.6002000000000 1.0
C      1  0.4864450000000  0.5257870000000  0.6007250000000 1.0
C      1  0.5163450000000  0.5242920000000  0.3992880000000 1.0
C      1  0.6040030000000  0.4844500000000  0.5264620000000 1.0
C      1  0.3956650000000  0.5166640000000  0.5263740000000 1.0
C      1  0.6062940000000  0.5174600000000  0.4773010000000 1.0
C      1  0.5267310000000  0.3938550000000  0.5117270000000 1.0
C      1  0.4763550000000  0.6039920000000  0.5109790000000 1.0
C      1  0.5279320000000  0.6083880000000  0.4812910000000 1.0
C      1  0.3941340000000  0.4734790000000  0.4884750000000 1.0
C      1  0.4731550000000  0.4864570000000  0.4004490000000 1.0
C      1  0.4835130000000  0.3947640000000  0.4738300000000 1.0
C      1  0.6045970000000  0.4742670000000  0.5152360000000 1.0
C      1  0.6046470000000  0.5276470000000  0.4884640000000 1.0
C      1  0.3954910000000  0.5268070000000  0.5151300000000 1.0
C      1  0.5241240000000  0.4825740000000  0.6008830000000 1.0
C      1  0.5266300000000  0.5130600000000  0.3999450000000 1.0
C      1  0.4751940000000  0.5155770000000  0.6009150000000 1.0
C      1  0.5166580000000  0.3923370000000  0.5229480000000 1.0
C      1  0.5171760000000  0.6072700000000  0.4706120000000 1.0
C      1  0.4870320000000  0.6044560000000  0.5216330000000 1.0
C      1  0.5497380000000  0.5572390000000  0.4338070000000 1.0
C      1  0.4348910000000  0.5491050000000  0.5545780000000 1.0
C      1  0.5577270000000  0.4301740000000  0.5446770000000 1.0
C      1  0.4548770000000  0.5592720000000  0.5644570000000 1.0
C      1  0.5465080000000  0.4397130000000  0.5644980000000 1.0
C      1  0.4503280000000  0.4433920000000  0.4359960000000 1.0
C      1  0.5698690000000  0.5481360000000  0.4439600000000 1.0
C      1  0.4299900000000  0.4524920000000  0.4455870000000 1.0
C      1  0.5662210000000  0.4505280000000  0.5548550000000 1.0
C      1  0.4400450000000  0.4323330000000  0.4553860000000 1.0
C      1  0.5599490000000  0.5687320000000  0.4528510000000 1.0
C      1  0.4442260000000  0.5691190000000  0.5444830000000 1.0
C      1  0.4342580000000  0.5594230000000  0.5446990000000 1.0
C      1  0.5600780000000  0.5473570000000  0.4340850000000 1.0
C      1  0.5472470000000  0.4298810000000  0.5546870000000 1.0
C      1  0.5696730000000  0.5588700000000  0.4536440000000 1.0
C      1  0.5672530000000  0.4402690000000  0.5449050000000 1.0
C      1  0.4300900000000  0.4419970000000  0.4555880000000 1.0
C      1  0.4449390000000  0.5489960000000  0.5641490000000 1.0
C      1  0.4398940000000  0.4531260000000  0.4358310000000 1.0
C      1  0.5561210000000  0.4502650000000  0.5643940000000 1.0
C      1  0.4503700000000  0.4332510000000  0.4454940000000 1.0
C      1  0.4546970000000  0.5690830000000  0.5545790000000 1.0
C      1  0.5497490000000  0.5677330000000  0.4428890000000 1.0
C      1  0.5257580000000  0.5620170000000  0.4281920000000 1.0
C      1  0.4291720000000  0.5252780000000  0.5600160000000 1.0
C      1  0.5664470000000  0.4224460000000  0.5218710000000 1.0
C      1  0.4776850000000  0.5667840000000  0.5729140000000 1.0
C      1  0.5234110000000  0.4321560000000  0.5718570000000 1.0
C      1  0.4743320000000  0.4387310000000  0.4305150000000 1.0
C      1  0.5775890000000  0.5247660000000  0.4378940000000 1.0
C      1  0.4221740000000  0.4756250000000  0.4386910000000 1.0
C      1  0.5710200000000  0.4745320000000  0.5603780000000 1.0
C      1  0.4325120000000  0.4229810000000  0.4779120000000 1.0
C      1  0.5664650000000  0.5778650000000  0.4755390000000 1.0
C      1  0.4356140000000  0.5771380000000  0.5217200000000 1.0
C      1  0.4249710000000  0.5670550000000  0.5222290000000 1.0
C      1  0.5671440000000  0.5238600000000  0.4276050000000 1.0
C      1  0.5242420000000  0.4216810000000  0.5616300000000 1.0
C      1  0.5764660000000  0.5672420000000  0.4767830000000 1.0
C      1  0.5766710000000  0.4329410000000  0.5223460000000 1.0
C      1  0.4221700000000  0.4333580000000  0.4783700000000 1.0
C      1  0.4395920000000  0.5251130000000  0.5697630000000 1.0
C      1  0.4327100000000  0.4763290000000  0.4285090000000 1.0
C      1  0.5605860000000  0.4742470000000  0.5701630000000 1.0
C      1  0.4743400000000  0.4281720000000  0.4401610000000 1.0
C      1  0.4776760000000  0.5771250000000  0.5624950000000 1.0
C      1  0.5258180000000  0.5729470000000  0.4374470000000 1.0
C      1  0.5001180000000  0.5726470000000  0.5790030000000 1.0
C      1  0.5684680000000  0.4983790000000  0.5584450000000 1.0
C      1  0.5678670000000  0.5816130000000  0.4990200000000 1.0
C      1  0.5019560000000  0.5600640000000  0.4308850000000 1.0
C      1  0.4981660000000  0.4409250000000  0.4329940000000 1.0
C      1  0.5001250000000  0.4278650000000  0.5746030000000 1.0
C      1  0.4192620000000  0.4991980000000  0.4364400000000 1.0
C      1  0.5807970000000  0.5011840000000  0.4359220000000 1.0
C      1  0.4309940000000  0.5014370000000  0.5578340000000 1.0
C      1  0.4288330000000  0.5825080000000  0.4993100000000 1.0
C      1  0.5729450000000  0.4174570000000  0.4993150000000 1.0
C      1  0.4270270000000  0.4166310000000  0.5003710000000 1.0
C      1  0.5782950000000  0.5719580000000  0.5000860000000 1.0
C      1  0.5582340000000  0.4980930000000  0.5681520000000 1.0
C      1  0.5000740000000  0.5828890000000  0.5689800000000 1.0
C      1  0.4184030000000  0.5727080000000  0.4998730000000 1.0
C      1  0.4170420000000  0.4269120000000  0.5009110000000 1.0
C      1  0.5830790000000  0.4275860000000  0.4998730000000 1.0
C      1  0.4287820000000  0.4996740000000  0.4258640000000 1.0
C      1  0.4413820000000  0.5012650000000  0.5673730000000 1.0
C      1  0.5712890000000  0.5004820000000  0.4253240000000 1.0
C      1  0.5020180000000  0.5709360000000  0.4398870000000 1.0
C      1  0.5007280000000  0.4183620000000  0.5640070000000 1.0
C      1  0.4981690000000  0.4304140000000  0.4424050000000 1.0
C      1  0.4486800000000  0.4118200000000  0.4625620000000 1.0
C      1  0.4590220000000  0.4521410000000  0.4162330000000 1.0
C      1  0.4096270000000  0.4599210000000  0.4538050000000 1.0
C      1  0.5503230000000  0.4098690000000  0.5361900000000 1.0
C      1  0.4525650000000  0.5890140000000  0.5358950000000 1.0
C      1  0.5516840000000  0.5896210000000  0.4592360000000 1.0
C      1  0.5373670000000  0.4481700000000  0.5844540000000 1.0
C      1  0.4629830000000  0.5506100000000  0.5847480000000 1.0
C      1  0.5409560000000  0.5478460000000  0.4144510000000 1.0
C      1  0.5864110000000  0.4595020000000  0.5478550000000 1.0
C      1  0.4143090000000  0.5409120000000  0.5477010000000 1.0
C      1  0.5898650000000  0.5406330000000  0.4531010000000 1.0
C      1  0.4589760000000  0.4128970000000  0.4524460000000 1.0
C      1  0.4098730000000  0.4496800000000  0.4640300000000 1.0
C      1  0.4486710000000  0.4622290000000  0.4159740000000 1.0
C      1  0.5401010000000  0.4094400000000  0.5464260000000 1.0
C      1  0.5412820000000  0.5884090000000  0.4492180000000 1.0
C      1  0.4629080000000  0.5890570000000  0.5460010000000 1.0
C      1  0.5876180000000  0.4492530000000  0.5377110000000 1.0
C      1  0.5893360000000  0.5509710000000  0.4631980000000 1.0
C      1  0.4134680000000  0.5511980000000  0.5375740000000 1.0
C      1  0.5473750000000  0.4586040000000  0.5842990000000 1.0
C      1  0.5512450000000  0.5376800000000  0.4145660000000 1.0
C      1  0.4528340000000  0.5403390000000  0.5842040000000 1.0
C      1  0.5601340000000  0.4546490000000  0.4367940000000 1.0
C      1  0.4287160000000  0.5586990000000  0.4552640000000 1.0
C      1  0.4535900000000  0.4278910000000  0.5530420000000 1.0
C      1  0.4457860000000  0.4515870000000  0.5625050000000 1.0
C      1  0.5525950000000  0.5477800000000  0.5646750000000 1.0
C      1  0.4401880000000  0.5457460000000  0.4363950000000 1.0
C      1  0.5647260000000  0.5604650000000  0.5452360000000 1.0
C      1  0.4314900000000  0.4389770000000  0.5449040000000 1.0
C      1  0.5718340000000  0.4419230000000  0.4556210000000 1.0
C      1  0.5478390000000  0.4343530000000  0.4478200000000 1.0
C      1  0.4525920000000  0.5662720000000  0.4469020000000 1.0
C      1  0.5451440000000  0.5718560000000  0.5570460000000 1.0
C      1  0.4341620000000  0.4517340000000  0.5524510000000 1.0
C      1  0.4524940000000  0.5544490000000  0.4370410000000 1.0
C      1  0.5606440000000  0.4318340000000  0.4553500000000 1.0
C      1  0.5714700000000  0.4540660000000  0.4472020000000 1.0
C      1  0.5633340000000  0.5480260000000  0.5536580000000 1.0
C      1  0.4289250000000  0.5465140000000  0.4469100000000 1.0
C      1  0.5448630000000  0.5605070000000  0.5669550000000 1.0
C      1  0.5478110000000  0.4460250000000  0.4378110000000 1.0
C      1  0.4542880000000  0.4391900000000  0.5634750000000 1.0
C      1  0.4414360000000  0.4276590000000  0.5446380000000 1.0
C      1  0.4399710000000  0.5686990000000  0.4548040000000 1.0
C      1  0.5542570000000  0.5717380000000  0.5454010000000 1.0
C      1  0.3985490000000  0.4808650000000  0.4637280000000 1.0
C      1  0.4595910000000  0.4003440000000  0.4830160000000 1.0
C      1  0.4806180000000  0.4622530000000  0.4065700000000 1.0
C      1  0.5966630000000  0.4813720000000  0.5389470000000 1.0
C      1  0.4031440000000  0.5194550000000  0.5388460000000 1.0
C      1  0.6006660000000  0.5199240000000  0.4636670000000 1.0
C      1  0.5402090000000  0.3999030000000  0.5145930000000 1.0
C      1  0.4627030000000  0.5983690000000  0.5140830000000 1.0
C      1  0.5414380000000  0.6022480000000  0.4792010000000 1.0
C      1  0.5156250000000  0.4587010000000  0.5942110000000 1.0
C      1  0.4840010000000  0.5395550000000  0.5950420000000 1.0
C      1  0.5192610000000  0.5375060000000  0.4052820000000 1.0
C      1  0.4594930000000  0.4838800000000  0.4063270000000 1.0
C      1  0.4806220000000  0.4022120000000  0.4613610000000 1.0
C      1  0.3999940000000  0.4599150000000  0.4856140000000 1.0
C      1  0.5371530000000  0.4799460000000  0.5943700000000 1.0
C      1  0.5403170000000  0.5157770000000  0.4056880000000 1.0
C      1  0.4623250000000  0.5185880000000  0.5942610000000 1.0
C      1  0.5193090000000  0.3980970000000  0.5364970000000 1.0
C      1  0.5198230000000  0.5996080000000  0.4581800000000 1.0
C      1  0.4843320000000  0.5988070000000  0.5354160000000 1.0
C      1  0.5988630000000  0.4604030000000  0.5172640000000 1.0
C      1  0.5985670000000  0.5410720000000  0.4854240000000 1.0
C      1  0.4017220000000  0.5404340000000  0.5171800000000 1.0
C      1  0.5110070000000  0.4268500000000  0.4470500000000 1.0
C      1  0.4309140000000  0.5129300000000  0.4215910000000 1.0
C      1  0.4122200000000  0.4288890000000  0.5142490000000 1.0
C      1  0.4881380000000  0.4144910000000  0.5590850000000 1.0
C      1  0.5130850000000  0.5885570000000  0.5673670000000 1.0
C      1  0.4892330000000  0.5744940000000  0.4446440000000 1.0
C      1  0.5531620000000  0.5108160000000  0.5715620000000 1.0
C      1  0.4462860000000  0.4883610000000  0.5704100000000 1.0
C      1  0.5692690000000  0.4871430000000  0.4211960000000 1.0
C      1  0.5887690000000  0.4300020000000  0.4869760000000 1.0
C      1  0.4124500000000  0.5705920000000  0.4870200000000 1.0
C      1  0.5818260000000  0.5699150000000  0.5135780000000 1.0
C      1  0.4293480000000  0.4109030000000  0.5132700000000 1.0
C      1  0.4155210000000  0.5118370000000  0.4413380000000 1.0
C      1  0.5109940000000  0.4460760000000  0.4300090000000 1.0
C      1  0.5710280000000  0.4126350000000  0.4859640000000 1.0
C      1  0.5623790000000  0.5855330000000  0.5113820000000 1.0
C      1  0.4305380000000  0.5874980000000  0.4860050000000 1.0
C      1  0.5716690000000  0.5113250000000  0.5537560000000 1.0
C      1  0.5847320000000  0.4886370000000  0.4409200000000 1.0
C      1  0.4272570000000  0.4886650000000  0.5531540000000 1.0
C      1  0.4868250000000  0.4298860000000  0.5788470000000 1.0
C      1  0.4891360000000  0.5546920000000  0.4283190000000 1.0
C      1  0.5131870000000  0.5705910000000  0.5845350000000 1.0
C      1  0.6161650000000  0.5116490000000  0.5034670000000 1.0
C      1  0.5011000000000  0.6177690000000  0.5061650000000 1.0
C      1  0.5096150000000  0.4979150000000  0.6126480000000 1.0
C      1  0.3825020000000  0.5102010000000  0.5020250000000 1.0
C      1  0.6171100000000  0.4912570000000  0.5021920000000 1.0
C      1  0.3827450000000  0.4898520000000  0.5033290000000 1.0
C      1  0.5013980000000  0.6183410000000  0.4857500000000 1.0
C      1  0.4994110000000  0.3823710000000  0.4874060000000 1.0
C      1  0.5013150000000  0.3810160000000  0.5075890000000 1.0
C      1  0.4896210000000  0.5002670000000  0.3884940000000 1.0
C      1  0.5101020000000  0.4989260000000  0.3884580000000 1.0
C      1  0.4894350000000  0.4997000000000  0.6124900000000 1.0
C      1  0.5002010000000  0.5090160000000  0.6125330000000 1.0
C      1  0.5113500000000  0.6191660000000  0.4958470000000 1.0
C      1  0.6161880000000  0.5005450000000  0.5129110000000 1.0
C      1  0.5007270000000  0.5096420000000  0.3880740000000 1.0
C      1  0.4988620000000  0.4886110000000  0.6120920000000 1.0
C      1  0.4989970000000  0.4895430000000  0.3883460000000 1.0
C      1  0.4911760000000  0.6170090000000  0.4960850000000 1.0
C      1  0.4901740000000  0.3816830000000  0.4981680000000 1.0
C      1  0.5105240000000  0.3822420000000  0.4968570000000 1.0
C      1  0.3816690000000  0.4990780000000  0.4925970000000 1.0
C      1  0.3830350000000  0.5009570000000  0.5127870000000 1.0
C      1  0.6176240000000  0.5024030000000  0.4927880000000 1.0
C      1  0.5477050000000  0.5023370000000  0.5931230000000 1.0
C      1  0.5959530000000  0.5515940000000  0.5074160000000 1.0
C      1  0.5058030000000  0.5988370000000  0.5466940000000 1.0
C      1  0.4489710000000  0.5059230000000  0.4075760000000 1.0
C      1  0.5509000000000  0.4938110000000  0.4073680000000 1.0
C      1  0.4518930000000  0.4962050000000  0.5920950000000 1.0
C      1  0.4017440000000  0.5505730000000  0.4952770000000 1.0
C      1  0.5990610000000  0.4502540000000  0.4953370000000 1.0
C      1  0.4018230000000  0.4495790000000  0.5074600000000 1.0
C      1  0.4971910000000  0.5965950000000  0.4485580000000 1.0
C      1  0.5029730000000  0.4047710000000  0.4509020000000 1.0
C      1  0.4975240000000  0.3966170000000  0.5475370000000 1.0
C      1  0.5936930000000  0.5036970000000  0.5492970000000 1.0
C      1  0.5058190000000  0.5498970000000  0.5944800000000 1.0
C      1  0.5513200000000  0.6034610000000  0.5014920000000 1.0
C      1  0.3973700000000  0.5026700000000  0.4526640000000 1.0
C      1  0.4053060000000  0.4970420000000  0.5492890000000 1.0
C      1  0.6024610000000  0.4981870000000  0.4526130000000 1.0
C      1  0.4968610000000  0.5479890000000  0.4069260000000 1.0
C      1  0.4936200000000  0.4481480000000  0.5927310000000 1.0
C      1  0.5030260000000  0.4518500000000  0.4084160000000 1.0
C      1  0.4515780000000  0.5973160000000  0.4925350000000 1.0
C      1  0.4494510000000  0.4002990000000  0.5049500000000 1.0
C      1  0.5504900000000  0.4019460000000  0.4927450000000 1.0
C      1  0.4103850000000  0.5104410000000  0.5480370000000 1.0
C      1  0.5515980000000  0.4051300000000  0.5063540000000 1.0
C      1  0.5104420000000  0.5475410000000  0.4116180000000 1.0
C      1  0.5961760000000  0.5111080000000  0.4525600000000 1.0
C      1  0.4034120000000  0.4896150000000  0.4527690000000 1.0
C      1  0.5891280000000  0.4901030000000  0.5481890000000 1.0
C      1  0.4480880000000  0.4047070000000  0.4917290000000 1.0
C      1  0.5519860000000  0.5973640000000  0.4884710000000 1.0
C      1  0.4508250000000  0.5938670000000  0.5060740000000 1.0
C      1  0.4924280000000  0.5511320000000  0.5905300000000 1.0
C      1  0.5072740000000  0.4473950000000  0.5890360000000 1.0
C      1  0.4895080000000  0.4525200000000  0.4132430000000 1.0
C      1  0.5516740000000  0.5074910000000  0.4109040000000 1.0
C      1  0.5105070000000  0.4027970000000  0.5474900000000 1.0
C      1  0.4062730000000  0.5518320000000  0.5084700000000 1.0
C      1  0.4527360000000  0.5097500000000  0.5873420000000 1.0
C      1  0.4481830000000  0.4923090000000  0.4113920000000 1.0
C      1  0.5469180000000  0.4889750000000  0.5879030000000 1.0
C      1  0.4894960000000  0.4096330000000  0.4521550000000 1.0
C      1  0.4925260000000  0.5945490000000  0.5473430000000 1.0
C      1  0.5107710000000  0.5918770000000  0.4493280000000 1.0
C      1  0.5929620000000  0.5523120000000  0.4935910000000 1.0
C      1  0.5946780000000  0.4488220000000  0.5085510000000 1.0
C      1  0.4050300000000  0.4484400000000  0.4938570000000 1.0
C      1  0.6082220000000  0.4802790000000  0.4762580000000 1.0
C      1  0.4734890000000  0.4778000000000  0.6009750000000 1.0
C      1  0.3951210000000  0.4792400000000  0.5280120000000 1.0
C      1  0.6033780000000  0.5221080000000  0.5280400000000 1.0
C      1  0.3916830000000  0.5208780000000  0.4761050000000 1.0
C      1  0.4800820000000  0.6054840000000  0.4709980000000 1.0
C      1  0.5209290000000  0.3948420000000  0.4721930000000 1.0
C      1  0.5266070000000  0.6088310000000  0.5181900000000 1.0
C      1  0.4793810000000  0.3907930000000  0.5240530000000 1.0
C      1  0.5212050000000  0.4736280000000  0.3995120000000 1.0
C      1  0.4786170000000  0.5258530000000  0.3989820000000 1.0
C      1  0.5257850000000  0.5200410000000  0.6020770000000 1.0
END
