TITL C-731043-5360-4 -69.8394218982784 1000000 -3796.84891714842 0 0 540 (C1) n - 1
REM
REM in /scratch/bkarasulu/Only-C240/Try5-OnlyC540
REM
REM
REM
REM
REM
REM ./C.cell (44946988efc617adc4c7d3233e6f571a)
REM
REM compiler GCC version 9.2.1 20190827 (Red Hat 9.2.1-1)
REM options -cpp -mtune=generic -march=x86-64 -g -O0 -fpre-include=/usr/include/finclude/math-vector-fortran.h
REM seed 657277090 -1904872005 1554907754 -1697079619 1743960305 1011282399 620759666 1590663212 1776997346 -2127019652 1434940607 -103886303 -1925467461 761402145 418239603 -734808707 799954769 -201817672 1591770506 -1911156870 -2064082333 -1132769852 1368939099 1564375761 -1538180617 689093897 -24751466 1716035542 560439668 -2029374706 -2023780279 -2146126232 -1982439304
REM
CELL 1.54180  100.00000  100.00000  100.00000   90.00000   90.00000   90.00000
LATT -1
SFAC C  
C      1  0.5239250000000  0.4607100000000  0.5898680000000 1.0
C      1  0.5911180000000  0.5270620000000  0.4563390000000 1.0
C      1  0.4682620000000  0.5838090000000  0.5290540000000 1.0
C      1  0.5338210000000  0.5329970000000  0.4143420000000 1.0
C      1  0.4766120000000  0.5394120000000  0.5856520000000 1.0
C      1  0.4770350000000  0.4599440000000  0.4131700000000 1.0
C      1  0.5901690000000  0.4673200000000  0.5310060000000 1.0
C      1  0.4076130000000  0.4744850000000  0.4606500000000 1.0
C      1  0.4108390000000  0.5222420000000  0.5360890000000 1.0
C      1  0.4690440000000  0.4162490000000  0.4685310000000 1.0
C      1  0.5319670000000  0.4177070000000  0.5336140000000 1.0
C      1  0.5404950000000  0.5912680000000  0.4761170000000 1.0
C      1  0.5315150000000  0.5911140000000  0.4659580000000 1.0
C      1  0.5920950000000  0.4584150000000  0.5210970000000 1.0
C      1  0.4667850000000  0.5295070000000  0.5844240000000 1.0
C      1  0.5226910000000  0.4148860000000  0.5436550000000 1.0
C      1  0.4772090000000  0.5858080000000  0.5396080000000 1.0
C      1  0.4788650000000  0.4141380000000  0.4589900000000 1.0
C      1  0.5891020000000  0.5358310000000  0.4669660000000 1.0
C      1  0.4080980000000  0.4644390000000  0.4698000000000 1.0
C      1  0.4105910000000  0.5323170000000  0.5267270000000 1.0
C      1  0.4663320000000  0.4689390000000  0.4140020000000 1.0
C      1  0.5440280000000  0.5241890000000  0.4113040000000 1.0
C      1  0.5335580000000  0.4705180000000  0.5881830000000 1.0
C      1  0.3976940000000  0.5364610000000  0.5205290000000 1.0
C      1  0.5166190000000  0.4012190000000  0.5439410000000 1.0
C      1  0.5440310000000  0.5184650000000  0.3977250000000 1.0
C      1  0.3958920000000  0.4596180000000  0.4766920000000 1.0
C      1  0.6036030000000  0.4560230000000  0.5134020000000 1.0
C      1  0.6012330000000  0.5393820000000  0.4756800000000 1.0
C      1  0.5240720000000  0.6032800000000  0.4618640000000 1.0
C      1  0.4823740000000  0.5996650000000  0.5414590000000 1.0
C      1  0.4851150000000  0.4007370000000  0.4584330000000 1.0
C      1  0.5377130000000  0.4789430000000  0.5997010000000 1.0
C      1  0.4626130000000  0.4765240000000  0.4012430000000 1.0
C      1  0.4616900000000  0.5228640000000  0.5970810000000 1.0
C      1  0.3981470000000  0.5156010000000  0.5394990000000 1.0
C      1  0.5246910000000  0.5378810000000  0.4028560000000 1.0
C      1  0.5372000000000  0.4061000000000  0.5253690000000 1.0
C      1  0.3947800000000  0.4806070000000  0.4575980000000 1.0
C      1  0.6048220000000  0.5211560000000  0.4552850000000 1.0
C      1  0.6002640000000  0.4759600000000  0.5355000000000 1.0
C      1  0.5173870000000  0.4599560000000  0.6034180000000 1.0
C      1  0.4822200000000  0.5420690000000  0.5995620000000 1.0
C      1  0.4834470000000  0.4580470000000  0.3995400000000 1.0
C      1  0.5434060000000  0.6038000000000  0.4827480000000 1.0
C      1  0.4636370000000  0.4040860000000  0.4761330000000 1.0
C      1  0.4633160000000  0.5962150000000  0.5214200000000 1.0
C      1  0.4187590000000  0.5374750000000  0.4439490000000 1.0
C      1  0.4438570000000  0.4213150000000  0.5397880000000 1.0
C      1  0.5375370000000  0.4253280000000  0.4184270000000 1.0
C      1  0.4185060000000  0.4675350000000  0.5678110000000 1.0
C      1  0.5745900000000  0.4669420000000  0.4221420000000 1.0
C      1  0.5707740000000  0.5411310000000  0.5569140000000 1.0
C      1  0.4303100000000  0.5796030000000  0.4669920000000 1.0
C      1  0.5596730000000  0.5795690000000  0.5431830000000 1.0
C      1  0.5636880000000  0.4290920000000  0.4584760000000 1.0
C      1  0.5436280000000  0.5645470000000  0.5798310000000 1.0
C      1  0.4614870000000  0.5585930000000  0.4429220000000 1.0
C      1  0.4601080000000  0.4432480000000  0.5774800000000 1.0
C      1  0.4219880000000  0.4359210000000  0.5440920000000 1.0
C      1  0.4214570000000  0.5311490000000  0.4315380000000 1.0
C      1  0.5379650000000  0.4182570000000  0.4286050000000 1.0
C      1  0.4195200000000  0.5734380000000  0.4668100000000 1.0
C      1  0.5730110000000  0.4338080000000  0.4692320000000 1.0
C      1  0.5687060000000  0.5734840000000  0.5328410000000 1.0
C      1  0.4268070000000  0.4693140000000  0.5768480000000 1.0
C      1  0.5675650000000  0.5335640000000  0.5690330000000 1.0
C      1  0.5637080000000  0.4569060000000  0.4171130000000 1.0
C      1  0.5369650000000  0.5776100000000  0.5771900000000 1.0
C      1  0.4651950000000  0.4300150000000  0.5762030000000 1.0
C      1  0.4586050000000  0.5717380000000  0.4378670000000 1.0
C      1  0.4630970000000  0.4995030000000  0.3964910000000 1.0
C      1  0.3892530000000  0.4589730000000  0.4992030000000 1.0
C      1  0.5063210000000  0.3914020000000  0.4625980000000 1.0
C      1  0.4609840000000  0.5015100000000  0.6065840000000 1.0
C      1  0.5411560000000  0.4979130000000  0.3871770000000 1.0
C      1  0.5381290000000  0.5014460000000  0.6061070000000 1.0
C      1  0.3887380000000  0.5370720000000  0.4988870000000 1.0
C      1  0.6068530000000  0.5377550000000  0.4982980000000 1.0
C      1  0.6074140000000  0.4600720000000  0.4908290000000 1.0
C      1  0.5027720000000  0.6113080000000  0.5404630000000 1.0
C      1  0.5010800000000  0.6082030000000  0.4619770000000 1.0
C      1  0.4953170000000  0.3919760000000  0.5403450000000 1.0
C      1  0.4620950000000  0.3994230000000  0.4991800000000 1.0
C      1  0.3853120000000  0.5016130000000  0.4599440000000 1.0
C      1  0.5040370000000  0.4601490000000  0.3882620000000 1.0
C      1  0.4637650000000  0.6030200000000  0.4989170000000 1.0
C      1  0.5387790000000  0.3982230000000  0.5035130000000 1.0
C      1  0.5410570000000  0.6124300000000  0.5039920000000 1.0
C      1  0.3882150000000  0.4946110000000  0.5380480000000 1.0
C      1  0.6029630000000  0.4986320000000  0.5338320000000 1.0
C      1  0.6143020000000  0.4996230000000  0.4561230000000 1.0
C      1  0.5029360000000  0.5404300000000  0.6109400000000 1.0
C      1  0.4962350000000  0.4627300000000  0.6132810000000 1.0
C      1  0.5011170000000  0.5368360000000  0.4022330000000 1.0
C      1  0.4539570000000  0.5233660000000  0.4002040000000 1.0
C      1  0.3909860000000  0.4504050000000  0.5245840000000 1.0
C      1  0.5325690000000  0.3918770000000  0.4571780000000 1.0
C      1  0.4513500000000  0.4770060000000  0.6086550000000 1.0
C      1  0.5491510000000  0.4724440000000  0.3848880000000 1.0
C      1  0.5476860000000  0.5259090000000  0.6079520000000 1.0
C      1  0.3861600000000  0.5465270000000  0.4740040000000 1.0
C      1  0.6024450000000  0.5447670000000  0.5233300000000 1.0
C      1  0.6018790000000  0.4578740000000  0.4640140000000 1.0
C      1  0.5278690000000  0.6135350000000  0.5493740000000 1.0
C      1  0.4756830000000  0.6034610000000  0.4542520000000 1.0
C      1  0.4691790000000  0.3939670000000  0.5467940000000 1.0
C      1  0.4521620000000  0.4026990000000  0.5240270000000 1.0
C      1  0.3843070000000  0.5273690000000  0.4531170000000 1.0
C      1  0.5296810000000  0.4524280000000  0.3852850000000 1.0
C      1  0.4556940000000  0.6038430000000  0.4737470000000 1.0
C      1  0.5492140000000  0.3986610000000  0.4791750000000 1.0
C      1  0.5484950000000  0.6136540000000  0.5293710000000 1.0
C      1  0.3874540000000  0.4691450000000  0.5453300000000 1.0
C      1  0.6004700000000  0.5230080000000  0.5427290000000 1.0
C      1  0.6064680000000  0.4746370000000  0.4476800000000 1.0
C      1  0.5287170000000  0.5477150000000  0.6119210000000 1.0
C      1  0.4703430000000  0.4559900000000  0.6116910000000 1.0
C      1  0.4754870000000  0.5455030000000  0.4096680000000 1.0
C      1  0.4579840000000  0.4514240000000  0.5887310000000 1.0
C      1  0.5852230000000  0.4604250000000  0.4466750000000 1.0
C      1  0.4525060000000  0.5836410000000  0.4569360000000 1.0
C      1  0.4505000000000  0.5504580000000  0.4171530000000 1.0
C      1  0.5428860000000  0.5544700000000  0.5903660000000 1.0
C      1  0.5461590000000  0.4458260000000  0.4054190000000 1.0
C      1  0.5799570000000  0.5388870000000  0.5461310000000 1.0
C      1  0.4066370000000  0.5414580000000  0.4499230000000 1.0
C      1  0.4089210000000  0.4537990000000  0.5497810000000 1.0
C      1  0.4418450000000  0.4143670000000  0.5521170000000 1.0
C      1  0.5555440000000  0.4170470000000  0.4616830000000 1.0
C      1  0.5525770000000  0.5921380000000  0.5443870000000 1.0
C      1  0.4619050000000  0.5828080000000  0.4463930000000 1.0
C      1  0.5780460000000  0.4491900000000  0.4533990000000 1.0
C      1  0.4469360000000  0.4602630000000  0.5885890000000 1.0
C      1  0.4547910000000  0.4118640000000  0.5590430000000 1.0
C      1  0.5435970000000  0.5931190000000  0.5557920000000 1.0
C      1  0.5470390000000  0.4136140000000  0.4511310000000 1.0
C      1  0.5806160000000  0.5497530000000  0.5365730000000 1.0
C      1  0.4103730000000  0.4431360000000  0.5403760000000 1.0
C      1  0.4063740000000  0.5530010000000  0.4580920000000 1.0
C      1  0.4417990000000  0.5378450000000  0.4161370000000 1.0
C      1  0.5557990000000  0.4564150000000  0.4051370000000 1.0
C      1  0.5512680000000  0.5428360000000  0.5881010000000 1.0
C      1  0.5790940000000  0.4452610000000  0.4304000000000 1.0
C      1  0.4347670000000  0.5733430000000  0.4430300000000 1.0
C      1  0.4384110000000  0.4339880000000  0.5814830000000 1.0
C      1  0.5745310000000  0.5553680000000  0.5634910000000 1.0
C      1  0.4192560000000  0.5592750000000  0.4329630000000 1.0
C      1  0.4224360000000  0.4423470000000  0.5669160000000 1.0
C      1  0.4332230000000  0.4213470000000  0.5613910000000 1.0
C      1  0.5703580000000  0.4280260000000  0.4441790000000 1.0
C      1  0.5672470000000  0.5769060000000  0.5565920000000 1.0
C      1  0.4417160000000  0.5602760000000  0.4237830000000 1.0
C      1  0.5590210000000  0.5675910000000  0.5769270000000 1.0
C      1  0.5607670000000  0.4328490000000  0.4219420000000 1.0
C      1  0.5792590000000  0.4384530000000  0.4423570000000 1.0
C      1  0.4304270000000  0.4442720000000  0.5783430000000 1.0
C      1  0.4446980000000  0.5706780000000  0.4330800000000 1.0
C      1  0.5748740000000  0.5654790000000  0.5544500000000 1.0
C      1  0.4229700000000  0.4307680000000  0.5582820000000 1.0
C      1  0.4219570000000  0.5672170000000  0.4433780000000 1.0
C      1  0.4290790000000  0.5540650000000  0.4255320000000 1.0
C      1  0.5701020000000  0.4429480000000  0.4202700000000 1.0
C      1  0.5666660000000  0.5564620000000  0.5748290000000 1.0
C      1  0.4413230000000  0.4243870000000  0.5726940000000 1.0
C      1  0.5592850000000  0.5779440000000  0.5677000000000 1.0
C      1  0.5610860000000  0.4251900000000  0.4339420000000 1.0
C      1  0.4819730000000  0.6042870000000  0.5548880000000 1.0
C      1  0.5520400000000  0.4812160000000  0.6000250000000 1.0
C      1  0.6035390000000  0.5533020000000  0.4774170000000 1.0
C      1  0.4871030000000  0.3958000000000  0.4453110000000 1.0
C      1  0.5157110000000  0.3952280000000  0.5567630000000 1.0
C      1  0.5218980000000  0.6040360000000  0.4478400000000 1.0
C      1  0.5568700000000  0.5181490000000  0.3915680000000 1.0
C      1  0.4474870000000  0.5220690000000  0.5981330000000 1.0
C      1  0.4488580000000  0.4771040000000  0.3979800000000 1.0
C      1  0.6021670000000  0.4427100000000  0.5081680000000 1.0
C      1  0.3958630000000  0.4454800000000  0.4786820000000 1.0
C      1  0.3965970000000  0.5506860000000  0.5189260000000 1.0
C      1  0.4829280000000  0.5557860000000  0.6030570000000 1.0
C      1  0.5572340000000  0.6061880000000  0.4845200000000 1.0
C      1  0.5979040000000  0.4789780000000  0.5492410000000 1.0
C      1  0.4845840000000  0.4443550000000  0.3959050000000 1.0
C      1  0.5219840000000  0.5519550000000  0.4036570000000 1.0
C      1  0.5169260000000  0.4470410000000  0.6092770000000 1.0
C      1  0.5515190000000  0.4055700000000  0.5248740000000 1.0
C      1  0.4492400000000  0.5952330000000  0.5183120000000 1.0
C      1  0.4493680000000  0.4048140000000  0.4778220000000 1.0
C      1  0.6106540000000  0.5218730000000  0.4424070000000 1.0
C      1  0.3923850000000  0.4822390000000  0.4437650000000 1.0
C      1  0.3958860000000  0.5142550000000  0.5534670000000 1.0
C      1  0.5661860000000  0.4391260000000  0.5054900000000 1.0
C      1  0.5183990000000  0.5680510000000  0.4448720000000 1.0
C      1  0.4413880000000  0.5102600000000  0.5642190000000 1.0
C      1  0.5683600000000  0.5605140000000  0.4870340000000 1.0
C      1  0.4317530000000  0.5552590000000  0.5119580000000 1.0
C      1  0.4316880000000  0.4443050000000  0.4837480000000 1.0
C      1  0.4999570000000  0.4242820000000  0.5716110000000 1.0
C      1  0.5035590000000  0.4262790000000  0.4337390000000 1.0
C      1  0.5010290000000  0.5751820000000  0.5663810000000 1.0
C      1  0.4381290000000  0.4863140000000  0.4325730000000 1.0
C      1  0.5564260000000  0.4823350000000  0.5646240000000 1.0
C      1  0.5729990000000  0.5027270000000  0.4201420000000 1.0
C      1  0.5823870000000  0.5041730000000  0.4280290000000 1.0
C      1  0.5007430000000  0.4331140000000  0.5801870000000 1.0
C      1  0.4447120000000  0.5603120000000  0.5138350000000 1.0
C      1  0.5618530000000  0.4783490000000  0.5522860000000 1.0
C      1  0.4291020000000  0.5035030000000  0.5625730000000 1.0
C      1  0.4257040000000  0.4932070000000  0.4341280000000 1.0
C      1  0.5213030000000  0.5554340000000  0.4399300000000 1.0
C      1  0.4979030000000  0.4371660000000  0.4286570000000 1.0
C      1  0.4961170000000  0.5635930000000  0.5706110000000 1.0
C      1  0.4447630000000  0.4402050000000  0.4813640000000 1.0
C      1  0.5665470000000  0.5724630000000  0.4947950000000 1.0
C      1  0.5565960000000  0.4401310000000  0.5157610000000 1.0
C      1  0.4828650000000  0.5483970000000  0.5766120000000 1.0
C      1  0.5764260000000  0.4685190000000  0.5348310000000 1.0
C      1  0.5482390000000  0.5803220000000  0.4808860000000 1.0
C      1  0.4836740000000  0.4513230000000  0.4222300000000 1.0
C      1  0.5194890000000  0.4495720000000  0.5815430000000 1.0
C      1  0.5297430000000  0.5382620000000  0.4264930000000 1.0
C      1  0.5829370000000  0.5229690000000  0.4449090000000 1.0
C      1  0.4216290000000  0.5176750000000  0.5442140000000 1.0
C      1  0.4183610000000  0.4795050000000  0.4527720000000 1.0
C      1  0.5384110000000  0.4295560000000  0.5293950000000 1.0
C      1  0.4630530000000  0.4279980000000  0.4731180000000 1.0
C      1  0.4624240000000  0.5722920000000  0.5235020000000 1.0
C      1  0.4818710000000  0.5768660000000  0.5501770000000 1.0
C      1  0.5779960000000  0.5432720000000  0.4718050000000 1.0
C      1  0.5413870000000  0.4742830000000  0.5765680000000 1.0
C      1  0.4838230000000  0.4231330000000  0.4487140000000 1.0
C      1  0.5276340000000  0.5798830000000  0.4581900000000 1.0
C      1  0.5182950000000  0.4227070000000  0.5550590000000 1.0
C      1  0.5798460000000  0.4529780000000  0.5174150000000 1.0
C      1  0.4211750000000  0.5405210000000  0.5215460000000 1.0
C      1  0.4195490000000  0.4573290000000  0.4742890000000 1.0
C      1  0.5556010000000  0.5201610000000  0.4190280000000 1.0
C      1  0.4576820000000  0.4732690000000  0.4243640000000 1.0
C      1  0.4600450000000  0.5236990000000  0.5734790000000 1.0
C      1  0.4823130000000  0.5102480000000  0.6093340000000 1.0
C      1  0.6111460000000  0.4800650000000  0.5027930000000 1.0
C      1  0.5101930000000  0.6114050000000  0.4834890000000 1.0
C      1  0.4844160000000  0.4907200000000  0.3933000000000 1.0
C      1  0.5168630000000  0.4927270000000  0.6101890000000 1.0
C      1  0.5200590000000  0.5072740000000  0.3905750000000 1.0
C      1  0.6104020000000  0.5170520000000  0.4882260000000 1.0
C      1  0.3866310000000  0.5154180000000  0.5076390000000 1.0
C      1  0.3858030000000  0.4805290000000  0.4903880000000 1.0
C      1  0.5063390000000  0.3934510000000  0.5200410000000 1.0
C      1  0.4945130000000  0.3926530000000  0.4826490000000 1.0
C      1  0.4938950000000  0.6100240000000  0.5190970000000 1.0
C      1  0.4842820000000  0.6080990000000  0.5089640000000 1.0
C      1  0.6122410000000  0.5076650000000  0.4779080000000 1.0
C      1  0.5064890000000  0.4833660000000  0.6117100000000 1.0
C      1  0.4835860000000  0.3943030000000  0.4915260000000 1.0
C      1  0.5200590000000  0.6124850000000  0.4936610000000 1.0
C      1  0.5172060000000  0.3944970000000  0.5111610000000 1.0
C      1  0.6096920000000  0.4895270000000  0.5133220000000 1.0
C      1  0.3866320000000  0.5050350000000  0.5172290000000 1.0
C      1  0.3850010000000  0.4909480000000  0.4807760000000 1.0
C      1  0.5102110000000  0.5168010000000  0.3943660000000 1.0
C      1  0.4943890000000  0.4811080000000  0.3907970000000 1.0
C      1  0.4927600000000  0.5196400000000  0.6100900000000 1.0
C      1  0.5462150000000  0.4452540000000  0.4304770000000 1.0
C      1  0.4311070000000  0.5421120000000  0.4499400000000 1.0
C      1  0.4463920000000  0.4352260000000  0.5444430000000 1.0
C      1  0.5414400000000  0.5578850000000  0.5655810000000 1.0
C      1  0.4538720000000  0.5459000000000  0.4426520000000 1.0
C      1  0.4542570000000  0.4473070000000  0.5646310000000 1.0
C      1  0.4339690000000  0.4537530000000  0.5543500000000 1.0
C      1  0.5622270000000  0.4598580000000  0.4403020000000 1.0
C      1  0.5565950000000  0.5456120000000  0.5520230000000 1.0
C      1  0.4427600000000  0.5601850000000  0.4596770000000 1.0
C      1  0.5494690000000  0.5673600000000  0.5451000000000 1.0
C      1  0.5550990000000  0.4410290000000  0.4529610000000 1.0
C      1  0.5466580000000  0.4373480000000  0.4422700000000 1.0
C      1  0.4350880000000  0.4436210000000  0.5445000000000 1.0
C      1  0.4414610000000  0.5405020000000  0.4404320000000 1.0
C      1  0.5417380000000  0.5683650000000  0.5562810000000 1.0
C      1  0.4541490000000  0.4361930000000  0.5561250000000 1.0
C      1  0.4541100000000  0.5546590000000  0.4537520000000 1.0
C      1  0.4309510000000  0.5529730000000  0.4587870000000 1.0
C      1  0.5631420000000  0.4523020000000  0.4516650000000 1.0
C      1  0.5569560000000  0.5558030000000  0.5429590000000 1.0
C      1  0.4437020000000  0.4563190000000  0.5641160000000 1.0
C      1  0.5487730000000  0.5466410000000  0.5634960000000 1.0
C      1  0.5540930000000  0.4567310000000  0.4297140000000 1.0
C      1  0.5182540000000  0.6159980000000  0.5081910000000 1.0
C      1  0.5070220000000  0.5176840000000  0.6142400000000 1.0
C      1  0.6112130000000  0.5046110000000  0.5126340000000 1.0
C      1  0.5177840000000  0.3907590000000  0.4966950000000 1.0
C      1  0.4829960000000  0.3918780000000  0.5062820000000 1.0
C      1  0.4852490000000  0.6114140000000  0.4944210000000 1.0
C      1  0.5084120000000  0.4829390000000  0.3856700000000 1.0
C      1  0.4920540000000  0.4855990000000  0.6153450000000 1.0
C      1  0.4952420000000  0.5156840000000  0.3944410000000 1.0
C      1  0.6156800000000  0.4930490000000  0.4787680000000 1.0
C      1  0.3828630000000  0.4905800000000  0.5155510000000 1.0
C      1  0.3814450000000  0.5054550000000  0.4828060000000 1.0
C      1  0.5166080000000  0.5072000000000  0.6133500000000 1.0
C      1  0.5079970000000  0.6153270000000  0.5180490000000 1.0
C      1  0.6118180000000  0.5152350000000  0.5030520000000 1.0
C      1  0.5183270000000  0.4931370000000  0.3854520000000 1.0
C      1  0.4854000000000  0.5056630000000  0.3932340000000 1.0
C      1  0.4825090000000  0.4960100000000  0.6137860000000 1.0
C      1  0.5088680000000  0.3892120000000  0.4857380000000 1.0
C      1  0.4952800000000  0.6126980000000  0.4843510000000 1.0
C      1  0.4918800000000  0.3905420000000  0.5172690000000 1.0
C      1  0.6144510000000  0.4824700000000  0.4882210000000 1.0
C      1  0.3824570000000  0.5151110000000  0.4932860000000 1.0
C      1  0.3830690000000  0.4808610000000  0.5051140000000 1.0
C      1  0.5263190000000  0.4654590000000  0.3810020000000 1.0
C      1  0.3794140000000  0.5243030000000  0.4659880000000 1.0
C      1  0.4637110000000  0.3945870000000  0.5227500000000 1.0
C      1  0.5258750000000  0.5345410000000  0.6159820000000 1.0
C      1  0.4772970000000  0.5330700000000  0.4017220000000 1.0
C      1  0.4730860000000  0.4688280000000  0.6168000000000 1.0
C      1  0.3821420000000  0.4719530000000  0.5326660000000 1.0
C      1  0.6148700000000  0.4765010000000  0.4593980000000 1.0
C      1  0.6077590000000  0.5219060000000  0.5308720000000 1.0
C      1  0.4675950000000  0.6105700000000  0.4764010000000 1.0
C      1  0.5355580000000  0.6185040000000  0.5266550000000 1.0
C      1  0.5374680000000  0.3910110000000  0.4806880000000 1.0
C      1  0.5288950000000  0.3878250000000  0.4701090000000 1.0
C      1  0.3839080000000  0.4624160000000  0.5225260000000 1.0
C      1  0.4675890000000  0.5232960000000  0.3981410000000 1.0
C      1  0.5254650000000  0.6183250000000  0.5363270000000 1.0
C      1  0.4721400000000  0.3909930000000  0.5334190000000 1.0
C      1  0.4774450000000  0.6104310000000  0.4663910000000 1.0
C      1  0.3807140000000  0.5337310000000  0.4762300000000 1.0
C      1  0.6120830000000  0.4664330000000  0.4687570000000 1.0
C      1  0.6087420000000  0.5323620000000  0.5215890000000 1.0
C      1  0.4637780000000  0.4790840000000  0.6149150000000 1.0
C      1  0.5351900000000  0.5241800000000  0.6141300000000 1.0
C      1  0.5360090000000  0.4753900000000  0.3806940000000 1.0
C      1  0.5241610000000  0.3989390000000  0.4483900000000 1.0
C      1  0.4457900000000  0.5128390000000  0.4044140000000 1.0
C      1  0.3984200000000  0.4438820000000  0.5148320000000 1.0
C      1  0.5190360000000  0.6054550000000  0.5566950000000 1.0
C      1  0.4860050000000  0.5978000000000  0.4469400000000 1.0
C      1  0.4786820000000  0.3983050000000  0.5560800000000 1.0
C      1  0.4456760000000  0.4855100000000  0.5989130000000 1.0
C      1  0.5572210000000  0.4810920000000  0.3924990000000 1.0
C      1  0.5533910000000  0.5173100000000  0.5983430000000 1.0
C      1  0.3949470000000  0.5529360000000  0.4828530000000 1.0
C      1  0.5960030000000  0.5522660000000  0.5133960000000 1.0
C      1  0.5939300000000  0.4500500000000  0.4730020000000 1.0
C      1  0.5212620000000  0.4447880000000  0.3933560000000 1.0
C      1  0.4468930000000  0.4102620000000  0.5136870000000 1.0
C      1  0.3927630000000  0.5187360000000  0.4457010000000 1.0
C      1  0.5197530000000  0.5559090000000  0.6049050000000 1.0
C      1  0.4797500000000  0.4476980000000  0.6051140000000 1.0
C      1  0.4873500000000  0.5515570000000  0.4136670000000 1.0
C      1  0.4498920000000  0.5936680000000  0.4819110000000 1.0
C      1  0.5542630000000  0.4077490000000  0.4885660000000 1.0
C      1  0.5558430000000  0.6052100000000  0.5207540000000 1.0
C      1  0.3966460000000  0.4774960000000  0.5521990000000 1.0
C      1  0.5914090000000  0.5135510000000  0.5479400000000 1.0
C      1  0.6037140000000  0.4853910000000  0.4397730000000 1.0
C      1  0.5539330000000  0.4947240000000  0.3925400000000 1.0
C      1  0.3962810000000  0.5489030000000  0.4961310000000 1.0
C      1  0.4922890000000  0.3970780000000  0.5532160000000 1.0
C      1  0.5493290000000  0.5039010000000  0.5975500000000 1.0
C      1  0.4502550000000  0.4999700000000  0.4025060000000 1.0
C      1  0.4499230000000  0.4988340000000  0.5981060000000 1.0
C      1  0.3976070000000  0.4475370000000  0.5014170000000 1.0
C      1  0.5977380000000  0.4501040000000  0.4868310000000 1.0
C      1  0.5989890000000  0.5494470000000  0.5000900000000 1.0
C      1  0.4993170000000  0.6003430000000  0.4500980000000 1.0
C      1  0.5055810000000  0.6050800000000  0.5528230000000 1.0
C      1  0.5102560000000  0.3976610000000  0.4504470000000 1.0
C      1  0.5494580000000  0.4073660000000  0.5017370000000 1.0
C      1  0.3964520000000  0.4911780000000  0.5492700000000 1.0
C      1  0.5001010000000  0.5483910000000  0.4103970000000 1.0
C      1  0.5528590000000  0.6050210000000  0.5072080000000 1.0
C      1  0.4510120000000  0.4083230000000  0.5004650000000 1.0
C      1  0.4532260000000  0.5937920000000  0.4956180000000 1.0
C      1  0.3928010000000  0.5050350000000  0.4482410000000 1.0
C      1  0.6083610000000  0.4978900000000  0.4432640000000 1.0
C      1  0.5927700000000  0.5002050000000  0.5439040000000 1.0
C      1  0.4933620000000  0.4502850000000  0.6072350000000 1.0
C      1  0.5062460000000  0.5526600000000  0.6048000000000 1.0
C      1  0.5077260000000  0.4479290000000  0.3942360000000 1.0
C      1  0.4184270000000  0.5512530000000  0.5116290000000 1.0
C      1  0.5067820000000  0.4167640000000  0.5621770000000 1.0
C      1  0.5628410000000  0.5088150000000  0.4129800000000 1.0
C      1  0.4181290000000  0.4467440000000  0.4844370000000 1.0
C      1  0.5785090000000  0.4446800000000  0.5057090000000 1.0
C      1  0.5794210000000  0.5524670000000  0.4825250000000 1.0
C      1  0.5175080000000  0.5814770000000  0.4476980000000 1.0
C      1  0.4931210000000  0.5832100000000  0.5582720000000 1.0
C      1  0.4962100000000  0.4177140000000  0.4418660000000 1.0
C      1  0.5516810000000  0.4850990000000  0.5773430000000 1.0
C      1  0.4471390000000  0.4824640000000  0.4219630000000 1.0
C      1  0.4500440000000  0.5137820000000  0.5752740000000 1.0
C      1  0.4185760000000  0.5067770000000  0.5542610000000 1.0
C      1  0.5203990000000  0.5484450000000  0.4277620000000 1.0
C      1  0.5475960000000  0.4292210000000  0.5189590000000 1.0
C      1  0.4151320000000  0.4899890000000  0.4425020000000 1.0
C      1  0.5892890000000  0.5125270000000  0.4366490000000 1.0
C      1  0.5737700000000  0.4789410000000  0.5445090000000 1.0
C      1  0.5080040000000  0.4423710000000  0.5874220000000 1.0
C      1  0.4943420000000  0.5555750000000  0.5822840000000 1.0
C      1  0.4958270000000  0.4449200000000  0.4168340000000 1.0
C      1  0.5583310000000  0.5831420000000  0.4916080000000 1.0
C      1  0.4525260000000  0.4284480000000  0.4822330000000 1.0
C      1  0.4526430000000  0.5721280000000  0.5132930000000 1.0
C      1  0.4345830000000  0.5436860000000  0.5216010000000 1.0
C      1  0.5232880000000  0.4347100000000  0.5608580000000 1.0
C      1  0.5613860000000  0.5256090000000  0.4309160000000 1.0
C      1  0.4332400000000  0.4556540000000  0.4734960000000 1.0
C      1  0.5696580000000  0.4582910000000  0.5262300000000 1.0
C      1  0.5559880000000  0.5583530000000  0.4802330000000 1.0
C      1  0.5287640000000  0.5662640000000  0.4560420000000 1.0
C      1  0.4776930000000  0.5639720000000  0.5544150000000 1.0
C      1  0.4788280000000  0.4355570000000  0.4441020000000 1.0
C      1  0.5446950000000  0.4712320000000  0.5635440000000 1.0
C      1  0.4403500000000  0.4796720000000  0.4451020000000 1.0
C      1  0.4433190000000  0.5172450000000  0.5520300000000 1.0
C      1  0.4351490000000  0.5216920000000  0.5434320000000 1.0
C      1  0.5303470000000  0.5534360000000  0.4512680000000 1.0
C      1  0.5582190000000  0.4511620000000  0.5244530000000 1.0
C      1  0.4319230000000  0.4759840000000  0.4537930000000 1.0
C      1  0.5701510000000  0.5266730000000  0.4396550000000 1.0
C      1  0.5504590000000  0.4693390000000  0.5518400000000 1.0
C      1  0.5238990000000  0.4437560000000  0.5693030000000 1.0
C      1  0.4832980000000  0.5572190000000  0.5645810000000 1.0
C      1  0.4844080000000  0.4426670000000  0.4342120000000 1.0
C      1  0.5473130000000  0.5669190000000  0.4767730000000 1.0
C      1  0.4463840000000  0.4517380000000  0.4725590000000 1.0
C      1  0.4473690000000  0.5484250000000  0.5217310000000 1.0
C      1  0.5305890000000  0.4895160000000  0.6060050000000 1.0
C      1  0.6071630000000  0.5311330000000  0.4858920000000 1.0
C      1  0.4913380000000  0.6075240000000  0.5331560000000 1.0
C      1  0.5344630000000  0.5096500000000  0.3912180000000 1.0
C      1  0.4686890000000  0.5131930000000  0.6050240000000 1.0
C      1  0.4703950000000  0.4874910000000  0.3960130000000 1.0
C      1  0.6086290000000  0.4655080000000  0.5039270000000 1.0
C      1  0.3892560000000  0.4665930000000  0.4872210000000 1.0
C      1  0.3903100000000  0.5293340000000  0.5106250000000 1.0
C      1  0.4935900000000  0.3941420000000  0.4682100000000 1.0
C      1  0.5077620000000  0.3947960000000  0.5343840000000 1.0
C      1  0.5132450000000  0.6088750000000  0.4693310000000 1.0
C      1  0.5345110000000  0.6106680000000  0.4916800000000 1.0
C      1  0.6055190000000  0.4865540000000  0.5272530000000 1.0
C      1  0.4909390000000  0.5338110000000  0.6074760000000 1.0
C      1  0.5305930000000  0.3988000000000  0.5149340000000 1.0
C      1  0.4706170000000  0.6030030000000  0.5112960000000 1.0
C      1  0.4700710000000  0.3984620000000  0.4875160000000 1.0
C      1  0.6113310000000  0.5111510000000  0.4637120000000 1.0
C      1  0.3872960000000  0.4892350000000  0.4663650000000 1.0
C      1  0.3900490000000  0.5068800000000  0.5313450000000 1.0
C      1  0.4922240000000  0.4667650000000  0.3922450000000 1.0
C      1  0.5132530000000  0.5303920000000  0.3989100000000 1.0
C      1  0.5084070000000  0.4691410000000  0.6102450000000 1.0
C      1  0.5124450000000  0.5309990000000  0.6154420000000 1.0
C      1  0.6082900000000  0.5090210000000  0.5260240000000 1.0
C      1  0.5317180000000  0.6171040000000  0.5134160000000 1.0
C      1  0.5132540000000  0.4695200000000  0.3832800000000 1.0
C      1  0.4865460000000  0.4723430000000  0.6168810000000 1.0
C      1  0.4902980000000  0.5286920000000  0.3989760000000 1.0
C      1  0.6172740000000  0.4890130000000  0.4647540000000 1.0
C      1  0.3827790000000  0.4852850000000  0.5289690000000 1.0
C      1  0.3804870000000  0.5109110000000  0.4694380000000 1.0
C      1  0.5317130000000  0.3919740000000  0.4931950000000 1.0
C      1  0.4692560000000  0.3941840000000  0.5099780000000 1.0
C      1  0.4718580000000  0.6096120000000  0.4894970000000 1.0
C      1  0.5124670000000  0.6165790000000  0.5317440000000 1.0
C      1  0.6104280000000  0.5286270000000  0.5083770000000 1.0
C      1  0.5302960000000  0.5114290000000  0.6122510000000 1.0
C      1  0.5152420000000  0.3877490000000  0.4728440000000 1.0
C      1  0.4905790000000  0.6116570000000  0.4706420000000 1.0
C      1  0.4857330000000  0.3895580000000  0.5302740000000 1.0
C      1  0.6130060000000  0.4693450000000  0.4821350000000 1.0
C      1  0.3827440000000  0.5289440000000  0.4890480000000 1.0
C      1  0.3841850000000  0.4670820000000  0.5094920000000 1.0
C      1  0.5317750000000  0.4884530000000  0.3828290000000 1.0
C      1  0.4719380000000  0.5103950000000  0.3949610000000 1.0
C      1  0.4687480000000  0.4918300000000  0.6131700000000 1.0
C      1  0.5551400000000  0.4099590000000  0.4742440000000 1.0
C      1  0.4635750000000  0.5503980000000  0.4151180000000 1.0
C      1  0.3990520000000  0.4637200000000  0.5498330000000 1.0
C      1  0.5537210000000  0.6019600000000  0.5343690000000 1.0
C      1  0.4533260000000  0.5918070000000  0.4682060000000 1.0
C      1  0.4458220000000  0.4146890000000  0.5277130000000 1.0
C      1  0.4669400000000  0.4505040000000  0.5997210000000 1.0
C      1  0.5352910000000  0.4460270000000  0.3961450000000 1.0
C      1  0.5332550000000  0.5546060000000  0.6008070000000 1.0
C      1  0.3961680000000  0.5320960000000  0.4483970000000 1.0
C      1  0.5882380000000  0.5274780000000  0.5467650000000 1.0
C      1  0.5979110000000  0.4631190000000  0.4508080000000 1.0
C      1  0.5558770000000  0.4671710000000  0.3955940000000 1.0
C      1  0.4648450000000  0.4028210000000  0.5565610000000 1.0
C      1  0.3972160000000  0.5528080000000  0.4688510000000 1.0
C      1  0.5523640000000  0.5313640000000  0.5962770000000 1.0
C      1  0.4467070000000  0.4714480000000  0.5971420000000 1.0
C      1  0.4438630000000  0.5264840000000  0.4088940000000 1.0
C      1  0.4728640000000  0.5920450000000  0.4469240000000 1.0
C      1  0.5373820000000  0.4031300000000  0.4513090000000 1.0
C      1  0.5330390000000  0.6026550000000  0.5560430000000 1.0
C      1  0.4020800000000  0.4432070000000  0.5286360000000 1.0
C      1  0.5904620000000  0.5507110000000  0.5265140000000 1.0
C      1  0.5818450000000  0.4438610000000  0.4667300000000 1.0
C      1  0.5043860000000  0.4029510000000  0.5587340000000 1.0
C      1  0.5590480000000  0.5066420000000  0.3991280000000 1.0
C      1  0.4045340000000  0.5534030000000  0.5073290000000 1.0
C      1  0.5116630000000  0.5944760000000  0.4452590000000 1.0
C      1  0.4938650000000  0.5974040000000  0.5566620000000 1.0
C      1  0.4983980000000  0.4038020000000  0.4446400000000 1.0
C      1  0.5538000000000  0.4917800000000  0.5904650000000 1.0
C      1  0.4463630000000  0.4867500000000  0.4074400000000 1.0
C      1  0.4473330000000  0.5108460000000  0.5899150000000 1.0
C      1  0.4049360000000  0.4434180000000  0.4895480000000 1.0
C      1  0.5917870000000  0.4435600000000  0.4986520000000 1.0
C      1  0.5937720000000  0.5538210000000  0.4871370000000 1.0
C      1  0.5135120000000  0.5529500000000  0.4147720000000 1.0
C      1  0.5508180000000  0.4148530000000  0.5144910000000 1.0
C      1  0.4041210000000  0.5031140000000  0.5535480000000 1.0
C      1  0.5056860000000  0.4452490000000  0.6013420000000 1.0
C      1  0.4953310000000  0.5570520000000  0.5964740000000 1.0
C      1  0.4969580000000  0.4433710000000  0.4026750000000 1.0
C      1  0.5576500000000  0.5976460000000  0.4954370000000 1.0
C      1  0.4478440000000  0.4147510000000  0.4877400000000 1.0
C      1  0.4490070000000  0.5860340000000  0.5075270000000 1.0
C      1  0.4004890000000  0.4934650000000  0.4433820000000 1.0
C      1  0.6031710000000  0.5107760000000  0.4392690000000 1.0
C      1  0.5865640000000  0.4870620000000  0.5475600000000 1.0
C      1  0.4408650000000  0.5752340000000  0.4571250000000 1.0
C      1  0.4372890000000  0.4586320000000  0.5781030000000 1.0
C      1  0.5777360000000  0.4608260000000  0.4342490000000 1.0
C      1  0.4558930000000  0.4238110000000  0.5669420000000 1.0
C      1  0.5473650000000  0.4222630000000  0.4395270000000 1.0
C      1  0.4323170000000  0.5390730000000  0.4264250000000 1.0
C      1  0.5467400000000  0.4371800000000  0.4174110000000 1.0
C      1  0.5715870000000  0.5606750000000  0.5394490000000 1.0
C      1  0.4180780000000  0.5617100000000  0.4576780000000 1.0
C      1  0.4194680000000  0.4551430000000  0.5594140000000 1.0
C      1  0.5585000000000  0.5430660000000  0.5756730000000 1.0
C      1  0.5441500000000  0.5816230000000  0.5646690000000 1.0
END
