TITL C-73720-2007-17 2.46556074879878 1000000 -3708.51285617893 0 0 540 (C1) n - 1
REM
REM in /home/chem/mssmkc/work/GAP20/Larger-Clusters/Only-C240/New/BUILD-ONLY
REM
REM
REM
REM
REM
REM ./C.cell (4d22446d3c8a03e2533cb19ef5564aa4)
REM
REM compiler GCC version 8.3.0
REM options -cpp -mtune=generic -march=x86-64 -g -O0
REM seed 1986397618 1542299579 818531260 -637438938 -1380924720 -1943907884 -1525016812 193965631 1570605413 770204811 -1107692235 321768217 -1814530491 -1172440835 -731778371 668586814 112963993 -1612064266 1696640171 143680367 780890026 1668191326 -1575176844 2120119969 246500660 -1649982185 386305530 1962846259 -1301742166 -768653817 605646186 1632331948 -578535324
REM
CELL 1.54180  100.00000  100.00000  100.00000   90.00000   90.00000   90.00000
LATT -1
SFAC C  
C      1  0.4425620000000  0.4142810000000  0.4722890000000 1.0
C      1  0.4620050000000  0.4428270000000  0.4134480000000 1.0
C      1  0.4177420000000  0.4631930000000  0.4440100000000 1.0
C      1  0.5482520000000  0.5618260000000  0.4661340000000 1.0
C      1  0.5630170000000  0.4119180000000  0.5378240000000 1.0
C      1  0.4379310000000  0.5882040000000  0.5321180000000 1.0
C      1  0.5305660000000  0.5597440000000  0.4129430000000 1.0
C      1  0.5297410000000  0.4387480000000  0.5888500000000 1.0
C      1  0.4691160000000  0.5587930000000  0.5841800000000 1.0
C      1  0.5821800000000  0.5346390000000  0.4447830000000 1.0
C      1  0.5794410000000  0.4625840000000  0.5585840000000 1.0
C      1  0.4193440000000  0.5394320000000  0.5573090000000 1.0
C      1  0.4173170000000  0.4405430000000  0.4690890000000 1.0
C      1  0.4400050000000  0.4697160000000  0.4145010000000 1.0
C      1  0.4669520000000  0.4228550000000  0.4460940000000 1.0
C      1  0.5935210000000  0.5571360000000  0.4678390000000 1.0
C      1  0.4129780000000  0.5622610000000  0.5325710000000 1.0
C      1  0.5903090000000  0.4362130000000  0.5350930000000 1.0
C      1  0.5550250000000  0.5368820000000  0.4182290000000 1.0
C      1  0.4437670000000  0.5337140000000  0.5850200000000 1.0
C      1  0.5572290000000  0.4605050000000  0.5897430000000 1.0
C      1  0.5327970000000  0.5691260000000  0.4448230000000 1.0
C      1  0.4616600000000  0.5829600000000  0.5561300000000 1.0
C      1  0.5383360000000  0.4145690000000  0.5613260000000 1.0
C      1  0.4599440000000  0.3997810000000  0.4638520000000 1.0
C      1  0.4579470000000  0.4566530000000  0.3924970000000 1.0
C      1  0.3939410000000  0.4623460000000  0.4569940000000 1.0
C      1  0.5465100000000  0.6018880000000  0.4709140000000 1.0
C      1  0.5476040000000  0.3933480000000  0.5392260000000 1.0
C      1  0.4540380000000  0.6059510000000  0.5342820000000 1.0
C      1  0.5362350000000  0.5435020000000  0.3964260000000 1.0
C      1  0.5327620000000  0.4495580000000  0.6127740000000 1.0
C      1  0.4640560000000  0.5463700000000  0.6067860000000 1.0
C      1  0.6071800000000  0.5303630000000  0.4524510000000 1.0
C      1  0.6048630000000  0.4638620000000  0.5522850000000 1.0
C      1  0.3944310000000  0.5382120000000  0.5461500000000 1.0
C      1  0.3981460000000  0.4545900000000  0.4664680000000 1.0
C      1  0.4491180000000  0.4659110000000  0.3900530000000 1.0
C      1  0.4686630000000  0.3979190000000  0.4542940000000 1.0
C      1  0.6074210000000  0.5378890000000  0.4630980000000 1.0
C      1  0.3958620000000  0.5457750000000  0.5357470000000 1.0
C      1  0.6039980000000  0.4544880000000  0.5432310000000 1.0
C      1  0.5463320000000  0.5360340000000  0.3929090000000 1.0
C      1  0.4544030000000  0.5378710000000  0.6089940000000 1.0
C      1  0.5421550000000  0.4581870000000  0.6100630000000 1.0
C      1  0.5448070000000  0.6043280000000  0.4583860000000 1.0
C      1  0.4619080000000  0.6076040000000  0.5444140000000 1.0
C      1  0.5393020000000  0.3904710000000  0.5487410000000 1.0
C      1  0.4157980000000  0.4603620000000  0.4829290000000 1.0
C      1  0.4812910000000  0.4172950000000  0.4639290000000 1.0
C      1  0.4592890000000  0.4804630000000  0.4064230000000 1.0
C      1  0.5901430000000  0.5375050000000  0.4811300000000 1.0
C      1  0.5890990000000  0.4571240000000  0.5232310000000 1.0
C      1  0.4137420000000  0.5422250000000  0.5190130000000 1.0
C      1  0.5166950000000  0.5795820000000  0.4601230000000 1.0
C      1  0.5273150000000  0.4105110000000  0.5404120000000 1.0
C      1  0.4738960000000  0.5875510000000  0.5361730000000 1.0
C      1  0.5366170000000  0.5219450000000  0.4117280000000 1.0
C      1  0.5376540000000  0.4750140000000  0.5929350000000 1.0
C      1  0.4631810000000  0.5226350000000  0.5922120000000 1.0
C      1  0.4644820000000  0.4161000000000  0.4821830000000 1.0
C      1  0.4136810000000  0.4761650000000  0.4637690000000 1.0
C      1  0.4761040000000  0.4624030000000  0.4076420000000 1.0
C      1  0.5373380000000  0.5808510000000  0.4785440000000 1.0
C      1  0.4572660000000  0.5877790000000  0.5177450000000 1.0
C      1  0.5446970000000  0.4114870000000  0.5225050000000 1.0
C      1  0.5874210000000  0.5207080000000  0.4636590000000 1.0
C      1  0.4146680000000  0.5263940000000  0.5379950000000 1.0
C      1  0.5862150000000  0.4748110000000  0.5400520000000 1.0
C      1  0.5183750000000  0.5383600000000  0.4124320000000 1.0
C      1  0.4812150000000  0.5393820000000  0.5915930000000 1.0
C      1  0.5189730000000  0.4588240000000  0.5952980000000 1.0
C      1  0.5387050000000  0.4734030000000  0.5679320000000 1.0
C      1  0.5664260000000  0.5468100000000  0.4801980000000 1.0
C      1  0.4671140000000  0.5698340000000  0.5475590000000 1.0
C      1  0.4530090000000  0.5273390000000  0.5728010000000 1.0
C      1  0.4492430000000  0.4764590000000  0.4260580000000 1.0
C      1  0.5463490000000  0.5297570000000  0.4309730000000 1.0
C      1  0.4262550000000  0.4350290000000  0.4798930000000 1.0
C      1  0.4212450000000  0.5687430000000  0.5217300000000 1.0
C      1  0.5813390000000  0.4295640000000  0.5251560000000 1.0
C      1  0.5330090000000  0.4277410000000  0.5526370000000 1.0
C      1  0.5242200000000  0.5725620000000  0.4341410000000 1.0
C      1  0.4737740000000  0.4350940000000  0.4530530000000 1.0
C      1  0.4754960000000  0.5497400000000  0.5722040000000 1.0
C      1  0.5552620000000  0.5559090000000  0.4766900000000 1.0
C      1  0.5676590000000  0.4681560000000  0.5499210000000 1.0
C      1  0.5234380000000  0.4470360000000  0.5766470000000 1.0
C      1  0.4782690000000  0.4622220000000  0.4325700000000 1.0
C      1  0.5219150000000  0.5686010000000  0.4203380000000 1.0
C      1  0.4364140000000  0.4238860000000  0.4818300000000 1.0
C      1  0.5697010000000  0.4199830000000  0.5268210000000 1.0
C      1  0.4315790000000  0.5794440000000  0.5215580000000 1.0
C      1  0.4323960000000  0.5340930000000  0.5486560000000 1.0
C      1  0.5698050000000  0.5280400000000  0.4528650000000 1.0
C      1  0.4310680000000  0.4697190000000  0.4518180000000 1.0
C      1  0.5910570000000  0.5521940000000  0.5425160000000 1.0
C      1  0.5394540000000  0.5874880000000  0.5433820000000 1.0
C      1  0.5444770000000  0.5403410000000  0.5858580000000 1.0
C      1  0.4112570000000  0.4480920000000  0.5428840000000 1.0
C      1  0.4098250000000  0.5549390000000  0.4594390000000 1.0
C      1  0.5874340000000  0.4552860000000  0.4572630000000 1.0
C      1  0.4614880000000  0.4106390000000  0.5461120000000 1.0
C      1  0.4598500000000  0.5893560000000  0.4396410000000 1.0
C      1  0.5400820000000  0.4134080000000  0.4437220000000 1.0
C      1  0.4566880000000  0.4584630000000  0.5876060000000 1.0
C      1  0.4413210000000  0.5376220000000  0.4070550000000 1.0
C      1  0.5540630000000  0.4615140000000  0.4046560000000 1.0
C      1  0.5520900000000  0.5907350000000  0.5390900000000 1.0
C      1  0.5871840000000  0.5396930000000  0.5467620000000 1.0
C      1  0.5391840000000  0.5529450000000  0.5881740000000 1.0
C      1  0.4489240000000  0.4078840000000  0.5412160000000 1.0
C      1  0.5454800000000  0.4162170000000  0.4560810000000 1.0
C      1  0.4551520000000  0.5878950000000  0.4524900000000 1.0
C      1  0.4151630000000  0.4604810000000  0.5474770000000 1.0
C      1  0.5913820000000  0.4601520000000  0.4450200000000 1.0
C      1  0.4115060000000  0.5420650000000  0.4548180000000 1.0
C      1  0.4616670000000  0.4457720000000  0.5899410000000 1.0
C      1  0.5414400000000  0.4567830000000  0.4074210000000 1.0
C      1  0.4540250000000  0.5430590000000  0.4078210000000 1.0
C      1  0.5968600000000  0.4485570000000  0.5324440000000 1.0
C      1  0.5433830000000  0.6011610000000  0.4461280000000 1.0
C      1  0.4516930000000  0.5293710000000  0.5970250000000 1.0
C      1  0.4058420000000  0.5511920000000  0.5270110000000 1.0
C      1  0.4089030000000  0.4505610000000  0.4750290000000 1.0
C      1  0.5987430000000  0.5448990000000  0.4722170000000 1.0
C      1  0.4739620000000  0.4114620000000  0.4530200000000 1.0
C      1  0.4663900000000  0.5937460000000  0.5464900000000 1.0
C      1  0.5343390000000  0.4040500000000  0.5509720000000 1.0
C      1  0.5469970000000  0.4659010000000  0.5985540000000 1.0
C      1  0.5469210000000  0.5307390000000  0.4068640000000 1.0
C      1  0.4473580000000  0.4742110000000  0.4021700000000 1.0
C      1  0.4485220000000  0.5956490000000  0.5260290000000 1.0
C      1  0.5931800000000  0.5267880000000  0.4519070000000 1.0
C      1  0.5248520000000  0.4470720000000  0.6005800000000 1.0
C      1  0.5530790000000  0.4037890000000  0.5312900000000 1.0
C      1  0.4550220000000  0.4078890000000  0.4744540000000 1.0
C      1  0.5494760000000  0.5893950000000  0.4760930000000 1.0
C      1  0.4073900000000  0.4676550000000  0.4542350000000 1.0
C      1  0.5912420000000  0.4689330000000  0.5520440000000 1.0
C      1  0.4084620000000  0.5341870000000  0.5480560000000 1.0
C      1  0.4733430000000  0.5503620000000  0.5965500000000 1.0
C      1  0.5265610000000  0.5482700000000  0.4058320000000 1.0
C      1  0.4666630000000  0.4525450000000  0.4035730000000 1.0
C      1  0.4198820000000  0.4393900000000  0.4537210000000 1.0
C      1  0.4510180000000  0.4229220000000  0.4484820000000 1.0
C      1  0.4398370000000  0.4540330000000  0.4132370000000 1.0
C      1  0.5863430000000  0.5595200000000  0.4552360000000 1.0
C      1  0.5832160000000  0.4366310000000  0.5492320000000 1.0
C      1  0.4174100000000  0.5630250000000  0.5478140000000 1.0
C      1  0.5474240000000  0.5717730000000  0.4432760000000 1.0
C      1  0.5537200000000  0.4177770000000  0.5631640000000 1.0
C      1  0.4462740000000  0.5800960000000  0.5572350000000 1.0
C      1  0.5551010000000  0.5525310000000  0.4196930000000 1.0
C      1  0.5563300000000  0.4465410000000  0.5870430000000 1.0
C      1  0.4441660000000  0.5492380000000  0.5859300000000 1.0
C      1  0.4418700000000  0.4203640000000  0.4578040000000 1.0
C      1  0.4212720000000  0.4478240000000  0.4429170000000 1.0
C      1  0.4482170000000  0.4435770000000  0.4170650000000 1.0
C      1  0.5551030000000  0.5690630000000  0.4544390000000 1.0
C      1  0.4377570000000  0.5840650000000  0.5473480000000 1.0
C      1  0.5628570000000  0.4155310000000  0.5530680000000 1.0
C      1  0.5829050000000  0.5503410000000  0.4454540000000 1.0
C      1  0.4218190000000  0.5549630000000  0.5578970000000 1.0
C      1  0.5797430000000  0.4463710000000  0.5575740000000 1.0
C      1  0.5446420000000  0.5618350000000  0.4170260000000 1.0
C      1  0.4536170000000  0.5584800000000  0.5855210000000 1.0
C      1  0.5454100000000  0.4386590000000  0.5906830000000 1.0
C      1  0.5019230000000  0.4760010000000  0.6021200000000 1.0
C      1  0.5949830000000  0.5009180000000  0.4784700000000 1.0
C      1  0.4739950000000  0.5949020000000  0.4998200000000 1.0
C      1  0.4992000000000  0.5233550000000  0.5998300000000 1.0
C      1  0.4950100000000  0.4769780000000  0.3988680000000 1.0
C      1  0.5011900000000  0.5239470000000  0.4005610000000 1.0
C      1  0.4062020000000  0.4961060000000  0.4778420000000 1.0
C      1  0.4077750000000  0.5059040000000  0.5243810000000 1.0
C      1  0.5949040000000  0.4938180000000  0.5254760000000 1.0
C      1  0.5282480000000  0.4066880000000  0.5035600000000 1.0
C      1  0.5213100000000  0.5909330000000  0.4958360000000 1.0
C      1  0.4808680000000  0.4072650000000  0.4995160000000 1.0
C      1  0.4773750000000  0.5037450000000  0.6008040000000 1.0
C      1  0.5006280000000  0.5911430000000  0.4748030000000 1.0
C      1  0.5945330000000  0.4734860000000  0.5044050000000 1.0
C      1  0.5238750000000  0.4951080000000  0.5995990000000 1.0
C      1  0.4749120000000  0.4980540000000  0.3975140000000 1.0
C      1  0.5219200000000  0.5031480000000  0.4011620000000 1.0
C      1  0.5008180000000  0.4087090000000  0.4782540000000 1.0
C      1  0.5082310000000  0.4043290000000  0.5250170000000 1.0
C      1  0.4936180000000  0.5941530000000  0.5215450000000 1.0
C      1  0.4068640000000  0.5246900000000  0.5019220000000 1.0
C      1  0.5959180000000  0.5209610000000  0.4999380000000 1.0
C      1  0.4076250000000  0.4772570000000  0.5003840000000 1.0
C      1  0.4083370000000  0.5061630000000  0.4679920000000 1.0
C      1  0.4728120000000  0.4085170000000  0.5110510000000 1.0
C      1  0.5055600000000  0.4681660000000  0.4020690000000 1.0
C      1  0.5918930000000  0.4899050000000  0.4700350000000 1.0
C      1  0.5918250000000  0.5041150000000  0.5345940000000 1.0
C      1  0.4113830000000  0.4961660000000  0.5341320000000 1.0
C      1  0.5293780000000  0.5896850000000  0.5076080000000 1.0
C      1  0.5364590000000  0.4108170000000  0.4926970000000 1.0
C      1  0.4657300000000  0.5932350000000  0.4885430000000 1.0
C      1  0.4902350000000  0.5327090000000  0.4023310000000 1.0
C      1  0.4905330000000  0.4683540000000  0.5984520000000 1.0
C      1  0.5104590000000  0.5307520000000  0.5956840000000 1.0
C      1  0.5114500000000  0.4120440000000  0.4696200000000 1.0
C      1  0.4106490000000  0.4701880000000  0.5122330000000 1.0
C      1  0.4665590000000  0.5091070000000  0.4005730000000 1.0
C      1  0.4897290000000  0.5900110000000  0.4659010000000 1.0
C      1  0.5035670000000  0.5911670000000  0.5312180000000 1.0
C      1  0.4977780000000  0.4065550000000  0.5344510000000 1.0
C      1  0.5933250000000  0.5287620000000  0.5115740000000 1.0
C      1  0.4095940000000  0.5321240000000  0.4902010000000 1.0
C      1  0.5913130000000  0.4648760000000  0.4936800000000 1.0
C      1  0.5300060000000  0.4918780000000  0.4038870000000 1.0
C      1  0.4681270000000  0.4935790000000  0.5972520000000 1.0
C      1  0.5328250000000  0.5048870000000  0.5944480000000 1.0
C      1  0.5931480000000  0.5150440000000  0.4755750000000 1.0
C      1  0.4700760000000  0.5922000000000  0.5131520000000 1.0
C      1  0.5154440000000  0.4715920000000  0.6004790000000 1.0
C      1  0.4089680000000  0.4820540000000  0.4760040000000 1.0
C      1  0.4096310000000  0.5200450000000  0.5261380000000 1.0
C      1  0.5922180000000  0.4800430000000  0.5282500000000 1.0
C      1  0.5320090000000  0.4072550000000  0.5172360000000 1.0
C      1  0.5242540000000  0.5859380000000  0.4825980000000 1.0
C      1  0.4774450000000  0.4118060000000  0.4865490000000 1.0
C      1  0.4856060000000  0.5273220000000  0.5976640000000 1.0
C      1  0.4811420000000  0.4739100000000  0.4004920000000 1.0
C      1  0.5142390000000  0.5265250000000  0.4054790000000 1.0
C      1  0.5138000000000  0.5856500000000  0.4722830000000 1.0
C      1  0.5926690000000  0.4700090000000  0.5179990000000 1.0
C      1  0.4750240000000  0.5176240000000  0.5980530000000 1.0
C      1  0.4870220000000  0.4118520000000  0.4758440000000 1.0
C      1  0.5222280000000  0.4061600000000  0.5277690000000 1.0
C      1  0.4795700000000  0.5923920000000  0.5238770000000 1.0
C      1  0.4094530000000  0.5291650000000  0.5150880000000 1.0
C      1  0.5942190000000  0.5247670000000  0.4861360000000 1.0
C      1  0.4102010000000  0.4729320000000  0.4870970000000 1.0
C      1  0.5262450000000  0.4810400000000  0.5992470000000 1.0
C      1  0.4713070000000  0.4843890000000  0.3999270000000 1.0
C      1  0.5247880000000  0.5167540000000  0.4051710000000 1.0
C      1  0.4487310000000  0.4659830000000  0.5424820000000 1.0
C      1  0.5427440000000  0.4497610000000  0.4622430000000 1.0
C      1  0.4644600000000  0.5424240000000  0.4407090000000 1.0
C      1  0.5536560000000  0.5325280000000  0.5417510000000 1.0
C      1  0.5546940000000  0.4693150000000  0.4521080000000 1.0
C      1  0.4450430000000  0.5342240000000  0.4545070000000 1.0
C      1  0.4574380000000  0.5551390000000  0.4613880000000 1.0
C      1  0.4580380000000  0.4443300000000  0.5330120000000 1.0
C      1  0.5440960000000  0.5537250000000  0.5317630000000 1.0
C      1  0.5337930000000  0.4603040000000  0.4410340000000 1.0
C      1  0.5327730000000  0.5427900000000  0.5513090000000 1.0
C      1  0.4690580000000  0.4551260000000  0.5526980000000 1.0
C      1  0.4686120000000  0.4443270000000  0.5423870000000 1.0
C      1  0.4464330000000  0.5450870000000  0.4633690000000 1.0
C      1  0.5444360000000  0.4695960000000  0.4410370000000 1.0
C      1  0.5331450000000  0.5533520000000  0.5406790000000 1.0
C      1  0.4660350000000  0.5539270000000  0.4502690000000 1.0
C      1  0.5333120000000  0.4498020000000  0.4517850000000 1.0
C      1  0.5537160000000  0.4599250000000  0.4625080000000 1.0
C      1  0.4478010000000  0.4553480000000  0.5331920000000 1.0
C      1  0.5546430000000  0.5431230000000  0.5324870000000 1.0
C      1  0.4542770000000  0.5329610000000  0.4427180000000 1.0
C      1  0.5425040000000  0.5325050000000  0.5516280000000 1.0
C      1  0.4598250000000  0.4658010000000  0.5524950000000 1.0
C      1  0.4761000000000  0.5369520000000  0.5778850000000 1.0
C      1  0.5734060000000  0.4672300000000  0.5372300000000 1.0
C      1  0.5369760000000  0.5699490000000  0.4687590000000 1.0
C      1  0.5230560000000  0.4600720000000  0.5815160000000 1.0
C      1  0.5213910000000  0.5341180000000  0.4260830000000 1.0
C      1  0.4731580000000  0.4682050000000  0.4218100000000 1.0
C      1  0.4277350000000  0.5340740000000  0.5354370000000 1.0
C      1  0.4274580000000  0.4698030000000  0.4653640000000 1.0
C      1  0.5748470000000  0.5276940000000  0.4659170000000 1.0
C      1  0.4638800000000  0.4284350000000  0.4749950000000 1.0
C      1  0.4577550000000  0.5747970000000  0.5239740000000 1.0
C      1  0.5435770000000  0.4243210000000  0.5291520000000 1.0
C      1  0.5320560000000  0.4706200000000  0.5791440000000 1.0
C      1  0.4664540000000  0.5742560000000  0.5342700000000 1.0
C      1  0.5751550000000  0.5368540000000  0.4764570000000 1.0
C      1  0.4657780000000  0.5272970000000  0.5784030000000 1.0
C      1  0.5334420000000  0.5276500000000  0.4255990000000 1.0
C      1  0.4619100000000  0.4766870000000  0.4202190000000 1.0
C      1  0.5346850000000  0.4239170000000  0.5392910000000 1.0
C      1  0.4740300000000  0.4303550000000  0.4662740000000 1.0
C      1  0.5278060000000  0.5718690000000  0.4578020000000 1.0
C      1  0.4285960000000  0.4623260000000  0.4766180000000 1.0
C      1  0.5760620000000  0.4566910000000  0.5292210000000 1.0
C      1  0.4269220000000  0.5421800000000  0.5246560000000 1.0
C      1  0.4244500000000  0.5956430000000  0.5357330000000 1.0
C      1  0.5326840000000  0.4234720000000  0.5844620000000 1.0
C      1  0.5774210000000  0.5372240000000  0.4299630000000 1.0
C      1  0.5758340000000  0.4037520000000  0.5413710000000 1.0
C      1  0.5624130000000  0.5831720000000  0.4736650000000 1.0
C      1  0.4287810000000  0.4076670000000  0.4689020000000 1.0
C      1  0.4654480000000  0.5734480000000  0.5784990000000 1.0
C      1  0.4699830000000  0.4348530000000  0.4222840000000 1.0
C      1  0.5428050000000  0.5853450000000  0.4095650000000 1.0
C      1  0.4189490000000  0.4716620000000  0.4313500000000 1.0
C      1  0.4220490000000  0.5311610000000  0.5695540000000 1.0
C      1  0.5742260000000  0.4603050000000  0.5726220000000 1.0
C      1  0.5959950000000  0.4224150000000  0.5398080000000 1.0
C      1  0.4291920000000  0.5368820000000  0.5795680000000 1.0
C      1  0.5428760000000  0.5945800000000  0.4345150000000 1.0
C      1  0.4051270000000  0.5756030000000  0.5360950000000 1.0
C      1  0.5872250000000  0.5687290000000  0.4738560000000 1.0
C      1  0.4091340000000  0.4271340000000  0.4670380000000 1.0
C      1  0.5657270000000  0.4677770000000  0.5807930000000 1.0
C      1  0.4251610000000  0.4670920000000  0.4199880000000 1.0
C      1  0.5685440000000  0.5306880000000  0.4217110000000 1.0
C      1  0.4633820000000  0.4269610000000  0.4317860000000 1.0
C      1  0.5288870000000  0.4166160000000  0.5731690000000 1.0
C      1  0.4704510000000  0.5806500000000  0.5682000000000 1.0
C      1  0.5900310000000  0.4783640000000  0.4661140000000 1.0
C      1  0.4616680000000  0.5914020000000  0.4770750000000 1.0
C      1  0.4791610000000  0.4655910000000  0.5946560000000 1.0
C      1  0.4098280000000  0.5173290000000  0.4629230000000 1.0
C      1  0.4135530000000  0.4852660000000  0.5394970000000 1.0
C      1  0.5895940000000  0.5152220000000  0.5393970000000 1.0
C      1  0.5401010000000  0.4136300000000  0.4812460000000 1.0
C      1  0.5321820000000  0.5889780000000  0.5196240000000 1.0
C      1  0.4695340000000  0.4090230000000  0.5229030000000 1.0
C      1  0.5218990000000  0.5333380000000  0.5919940000000 1.0
C      1  0.5168120000000  0.4637490000000  0.4043880000000 1.0
C      1  0.4788690000000  0.5371000000000  0.4040490000000 1.0
C      1  0.4784300000000  0.5893890000000  0.4610870000000 1.0
C      1  0.5891550000000  0.4611750000000  0.4821340000000 1.0
C      1  0.4633550000000  0.4828170000000  0.5935950000000 1.0
C      1  0.5228110000000  0.4141430000000  0.4654370000000 1.0
C      1  0.4863770000000  0.4080870000000  0.5389230000000 1.0
C      1  0.5149790000000  0.5894030000000  0.5355480000000 1.0
C      1  0.4109640000000  0.5348670000000  0.4782940000000 1.0
C      1  0.5912610000000  0.5321070000000  0.5232850000000 1.0
C      1  0.4123780000000  0.4676460000000  0.5241560000000 1.0
C      1  0.5374850000000  0.5156520000000  0.5905860000000 1.0
C      1  0.4628490000000  0.5204340000000  0.4035940000000 1.0
C      1  0.5335020000000  0.4801360000000  0.4052250000000 1.0
C      1  0.4288740000000  0.4361840000000  0.5536860000000 1.0
C      1  0.5527090000000  0.4306810000000  0.4325870000000 1.0
C      1  0.4330270000000  0.5514780000000  0.4250780000000 1.0
C      1  0.5729060000000  0.5636920000000  0.5531930000000 1.0
C      1  0.5722400000000  0.4403080000000  0.4441720000000 1.0
C      1  0.4266770000000  0.5641570000000  0.4449060000000 1.0
C      1  0.4457070000000  0.5715090000000  0.4313200000000 1.0
C      1  0.4493050000000  0.4255720000000  0.5619790000000 1.0
C      1  0.5515750000000  0.5734580000000  0.5603480000000 1.0
C      1  0.5645130000000  0.4492320000000  0.4224510000000 1.0
C      1  0.5602850000000  0.5524650000000  0.5707930000000 1.0
C      1  0.4409970000000  0.4468250000000  0.5720530000000 1.0
C      1  0.4382760000000  0.4256520000000  0.5532640000000 1.0
C      1  0.4247910000000  0.5528810000000  0.4366010000000 1.0
C      1  0.5531860000000  0.4408320000000  0.4226290000000 1.0
C      1  0.5631360000000  0.5739020000000  0.5523330000000 1.0
C      1  0.4376130000000  0.5730690000000  0.4428400000000 1.0
C      1  0.5615570000000  0.4307640000000  0.4437710000000 1.0
C      1  0.5739560000000  0.4488160000000  0.4329460000000 1.0
C      1  0.4303860000000  0.4472780000000  0.5624040000000 1.0
C      1  0.5712450000000  0.5523240000000  0.5615510000000 1.0
C      1  0.4439860000000  0.5601960000000  0.4228460000000 1.0
C      1  0.5512600000000  0.5635580000000  0.5705530000000 1.0
C      1  0.4496590000000  0.4355210000000  0.5720960000000 1.0
C      1  0.5574600000000  0.4239590000000  0.4559030000000 1.0
C      1  0.4550750000000  0.5554210000000  0.4147990000000 1.0
C      1  0.4239810000000  0.4599160000000  0.5588440000000 1.0
C      1  0.4428620000000  0.5808090000000  0.4539130000000 1.0
C      1  0.4397700000000  0.4177810000000  0.5411540000000 1.0
C      1  0.5616770000000  0.5813230000000  0.5398570000000 1.0
C      1  0.5411080000000  0.4450430000000  0.4155950000000 1.0
C      1  0.5388480000000  0.5616800000000  0.5778770000000 1.0
C      1  0.4619560000000  0.4370270000000  0.5797160000000 1.0
C      1  0.5780440000000  0.5399000000000  0.5579510000000 1.0
C      1  0.5820990000000  0.4607290000000  0.4352970000000 1.0
C      1  0.4179590000000  0.5412010000000  0.4421320000000 1.0
C      1  0.4200760000000  0.5636650000000  0.4577940000000 1.0
C      1  0.5630900000000  0.4614930000000  0.4146560000000 1.0
C      1  0.4615420000000  0.4187080000000  0.5578980000000 1.0
C      1  0.5787320000000  0.4438860000000  0.4566970000000 1.0
C      1  0.4205990000000  0.4384550000000  0.5419570000000 1.0
C      1  0.5814810000000  0.5615690000000  0.5415780000000 1.0
C      1  0.4335060000000  0.5386650000000  0.4181060000000 1.0
C      1  0.5563000000000  0.5402460000000  0.5777230000000 1.0
C      1  0.4451940000000  0.4589440000000  0.5790120000000 1.0
C      1  0.5392350000000  0.5796570000000  0.5554330000000 1.0
C      1  0.4582420000000  0.5789270000000  0.4311150000000 1.0
C      1  0.5403530000000  0.4231720000000  0.4343320000000 1.0
C      1  0.5246090000000  0.5618870000000  0.5484170000000 1.0
C      1  0.5501990000000  0.5239770000000  0.5605690000000 1.0
C      1  0.5643830000000  0.5516270000000  0.5265600000000 1.0
C      1  0.4767530000000  0.4358310000000  0.5506180000000 1.0
C      1  0.4730250000000  0.5616240000000  0.4401860000000 1.0
C      1  0.5256250000000  0.4409950000000  0.4432770000000 1.0
C      1  0.4524090000000  0.4744410000000  0.5614020000000 1.0
C      1  0.4445200000000  0.5250640000000  0.4355710000000 1.0
C      1  0.5535160000000  0.4762200000000  0.4322000000000 1.0
C      1  0.4381980000000  0.4469320000000  0.5266800000000 1.0
C      1  0.4387280000000  0.5545710000000  0.4711140000000 1.0
C      1  0.5613640000000  0.4515620000000  0.4716380000000 1.0
C      1  0.5615980000000  0.5239070000000  0.5504200000000 1.0
C      1  0.5248900000000  0.5513080000000  0.5599980000000 1.0
C      1  0.5530110000000  0.5629590000000  0.5256000000000 1.0
C      1  0.4411030000000  0.4750060000000  0.5510720000000 1.0
C      1  0.5643650000000  0.4757540000000  0.4439060000000 1.0
C      1  0.4354020000000  0.5257520000000  0.4480350000000 1.0
C      1  0.4763940000000  0.4467620000000  0.5619270000000 1.0
C      1  0.5253190000000  0.4522510000000  0.4325300000000 1.0
C      1  0.4721360000000  0.5494970000000  0.4307920000000 1.0
C      1  0.4489570000000  0.4354420000000  0.5263970000000 1.0
C      1  0.5503320000000  0.4413030000000  0.4713650000000 1.0
C      1  0.4503580000000  0.5644200000000  0.4698590000000 1.0
C      1  0.4883820000000  0.5005920000000  0.3947710000000 1.0
C      1  0.4037520000000  0.4906570000000  0.5019400000000 1.0
C      1  0.5040480000000  0.4042240000000  0.4910630000000 1.0
C      1  0.5089100000000  0.5006090000000  0.3965870000000 1.0
C      1  0.5110680000000  0.4991440000000  0.6038130000000 1.0
C      1  0.4904720000000  0.5004380000000  0.6044720000000 1.0
C      1  0.5987940000000  0.5074730000000  0.5021510000000 1.0
C      1  0.5981540000000  0.4868670000000  0.5018070000000 1.0
C      1  0.4033470000000  0.5111890000000  0.5005090000000 1.0
C      1  0.4982490000000  0.5958350000000  0.4876630000000 1.0
C      1  0.5050060000000  0.4021830000000  0.5115510000000 1.0
C      1  0.4974350000000  0.5969060000000  0.5082760000000 1.0
C      1  0.4984070000000  0.4902460000000  0.3954590000000 1.0
C      1  0.4942040000000  0.4032650000000  0.5015180000000 1.0
C      1  0.4032020000000  0.4999550000000  0.4909650000000 1.0
C      1  0.4988140000000  0.5108570000000  0.3959310000000 1.0
C      1  0.5012910000000  0.5100600000000  0.6036800000000 1.0
C      1  0.5002310000000  0.4895640000000  0.6048500000000 1.0
C      1  0.5081860000000  0.5954330000000  0.4981600000000 1.0
C      1  0.4876280000000  0.5974350000000  0.4977880000000 1.0
C      1  0.5148450000000  0.4032480000000  0.5010610000000 1.0
C      1  0.5983650000000  0.4976020000000  0.4916450000000 1.0
C      1  0.4038880000000  0.5018950000000  0.5115130000000 1.0
C      1  0.5985300000000  0.4967600000000  0.5122520000000 1.0
C      1  0.4837900000000  0.4505670000000  0.4356280000000 1.0
C      1  0.4344130000000  0.4809270000000  0.4449470000000 1.0
C      1  0.4257660000000  0.4166960000000  0.4896140000000 1.0
C      1  0.5189070000000  0.5823020000000  0.4164640000000 1.0
C      1  0.5156850000000  0.4412110000000  0.5668640000000 1.0
C      1  0.4837790000000  0.5557570000000  0.5628030000000 1.0
C      1  0.5632030000000  0.5174990000000  0.4467440000000 1.0
C      1  0.5607170000000  0.4790670000000  0.5548930000000 1.0
C      1  0.4370780000000  0.5229860000000  0.5549750000000 1.0
C      1  0.5594830000000  0.5648480000000  0.4880750000000 1.0
C      1  0.5778610000000  0.4091090000000  0.5198700000000 1.0
C      1  0.4217910000000  0.5884370000000  0.5146180000000 1.0
C      1  0.4437240000000  0.4853100000000  0.4350600000000 1.0
C      1  0.4844230000000  0.4408650000000  0.4462470000000 1.0
C      1  0.4161970000000  0.4271140000000  0.4881810000000 1.0
C      1  0.5543080000000  0.5199400000000  0.4359250000000 1.0
C      1  0.4472400000000  0.5183360000000  0.5639420000000 1.0
C      1  0.5504660000000  0.4784810000000  0.5648020000000 1.0
C      1  0.5201800000000  0.5867950000000  0.4306790000000 1.0
C      1  0.4785310000000  0.5655540000000  0.5536140000000 1.0
C      1  0.5209990000000  0.4312750000000  0.5579450000000 1.0
C      1  0.5719160000000  0.5570610000000  0.4893500000000 1.0
C      1  0.4118430000000  0.5781700000000  0.5147980000000 1.0
C      1  0.5887420000000  0.4181610000000  0.5186250000000 1.0
C      1  0.4324020000000  0.5511190000000  0.5784620000000 1.0
C      1  0.5863080000000  0.4224380000000  0.5507510000000 1.0
C      1  0.5494780000000  0.5814180000000  0.4321780000000 1.0
C      1  0.5638560000000  0.4385840000000  0.5771610000000 1.0
C      1  0.5654040000000  0.5582030000000  0.4271810000000 1.0
C      1  0.4275920000000  0.4531210000000  0.4203380000000 1.0
C      1  0.4139390000000  0.5772660000000  0.5475200000000 1.0
C      1  0.4170640000000  0.4248720000000  0.4551390000000 1.0
C      1  0.5796770000000  0.5712640000000  0.4612030000000 1.0
C      1  0.4493940000000  0.4280710000000  0.4352510000000 1.0
C      1  0.4416310000000  0.5709250000000  0.5675420000000 1.0
C      1  0.5566120000000  0.4259700000000  0.5746750000000 1.0
C      1  0.5466700000000  0.4258920000000  0.5847030000000 1.0
C      1  0.4233990000000  0.5870840000000  0.5473870000000 1.0
C      1  0.5756670000000  0.5515580000000  0.4329540000000 1.0
C      1  0.4512520000000  0.5699860000000  0.5777870000000 1.0
C      1  0.5474440000000  0.5762530000000  0.4194440000000 1.0
C      1  0.4412560000000  0.4368260000000  0.4282220000000 1.0
C      1  0.5773160000000  0.4122770000000  0.5529450000000 1.0
C      1  0.4277270000000  0.4165540000000  0.4573480000000 1.0
C      1  0.5669670000000  0.5766310000000  0.4604930000000 1.0
C      1  0.4286990000000  0.4440920000000  0.4311030000000 1.0
C      1  0.5733830000000  0.4459990000000  0.5703450000000 1.0
C      1  0.4310740000000  0.5602700000000  0.5678520000000 1.0
C      1  0.5656700000000  0.5173290000000  0.4265520000000 1.0
C      1  0.4045380000000  0.5848070000000  0.5256410000000 1.0
C      1  0.5159330000000  0.4208190000000  0.5676960000000 1.0
C      1  0.4323280000000  0.4930710000000  0.4289330000000 1.0
C      1  0.4366430000000  0.5097520000000  0.5705980000000 1.0
C      1  0.5615350000000  0.4807550000000  0.5751360000000 1.0
C      1  0.5956830000000  0.4119240000000  0.5300000000000 1.0
C      1  0.5795260000000  0.5690180000000  0.4857660000000 1.0
C      1  0.4084710000000  0.4192950000000  0.4783730000000 1.0
C      1  0.4836200000000  0.5761090000000  0.5633250000000 1.0
C      1  0.4908750000000  0.4319970000000  0.4356590000000 1.0
C      1  0.5308830000000  0.5963420000000  0.4266850000000 1.0
C      1  0.5308730000000  0.5907340000000  0.4132630000000 1.0
C      1  0.5845310000000  0.4018660000000  0.5308360000000 1.0
C      1  0.4268950000000  0.5179070000000  0.5649820000000 1.0
C      1  0.4836040000000  0.4387260000000  0.4260200000000 1.0
C      1  0.5072990000000  0.4302120000000  0.5728310000000 1.0
C      1  0.4920130000000  0.5666790000000  0.5689600000000 1.0
C      1  0.4150820000000  0.5957430000000  0.5254410000000 1.0
C      1  0.5674240000000  0.5766750000000  0.4848540000000 1.0
C      1  0.4189850000000  0.4085720000000  0.4793780000000 1.0
C      1  0.5684020000000  0.4876750000000  0.5651910000000 1.0
C      1  0.4232920000000  0.4850460000000  0.4354560000000 1.0
C      1  0.5718710000000  0.5105460000000  0.4364780000000 1.0
C      1  0.4735360000000  0.4356880000000  0.5713380000000 1.0
C      1  0.5742230000000  0.4725950000000  0.4335140000000 1.0
C      1  0.4403810000000  0.5748900000000  0.4665900000000 1.0
C      1  0.5275020000000  0.5626560000000  0.5691500000000 1.0
C      1  0.5291870000000  0.4420460000000  0.4226570000000 1.0
C      1  0.4677860000000  0.5587940000000  0.4201450000000 1.0
C      1  0.4242520000000  0.5289850000000  0.4389240000000 1.0
C      1  0.4318630000000  0.4711640000000  0.5618050000000 1.0
C      1  0.5705910000000  0.5283620000000  0.5611140000000 1.0
C      1  0.5604760000000  0.4312110000000  0.4677560000000 1.0
C      1  0.5636140000000  0.5724950000000  0.5287240000000 1.0
C      1  0.4380480000000  0.4261350000000  0.5295620000000 1.0
C      1  0.4424520000000  0.4705790000000  0.5714430000000 1.0
C      1  0.4692230000000  0.5700210000000  0.4287940000000 1.0
C      1  0.5708570000000  0.4409480000000  0.4681200000000 1.0
C      1  0.5598930000000  0.5285210000000  0.5705840000000 1.0
C      1  0.4325800000000  0.5278060000000  0.4274060000000 1.0
C      1  0.5645640000000  0.4730490000000  0.4230730000000 1.0
C      1  0.5290040000000  0.4316570000000  0.4323410000000 1.0
C      1  0.4732640000000  0.4259620000000  0.5608610000000 1.0
C      1  0.5277110000000  0.5721220000000  0.5584030000000 1.0
C      1  0.4296230000000  0.5657460000000  0.4683140000000 1.0
C      1  0.5736930000000  0.5625270000000  0.5295090000000 1.0
C      1  0.4282750000000  0.4365120000000  0.5298650000000 1.0
C      1  0.4104260000000  0.5314330000000  0.4644680000000 1.0
C      1  0.5892050000000  0.4641880000000  0.4684060000000 1.0
C      1  0.5895940000000  0.5291010000000  0.5373280000000 1.0
C      1  0.4133950000000  0.4711930000000  0.5379950000000 1.0
C      1  0.4655120000000  0.4689700000000  0.5916120000000 1.0
C      1  0.5369490000000  0.4144770000000  0.4674840000000 1.0
C      1  0.4643210000000  0.5900080000000  0.4633030000000 1.0
C      1  0.4724060000000  0.4087420000000  0.5368810000000 1.0
C      1  0.5306740000000  0.4660780000000  0.4052910000000 1.0
C      1  0.5289160000000  0.5890510000000  0.5336290000000 1.0
C      1  0.4650430000000  0.5344000000000  0.4050120000000 1.0
C      1  0.5355210000000  0.5296590000000  0.5892300000000 1.0
END
