TITL C-73720-2007-1 -55.1525719843398 1000000 -4028.38791165695 0 0 540 (Th) n - 1
REM
REM in /home/chem/mssmkc/work/GAP20/Larger-Clusters/Only-C240/New/BUILD-ONLY
REM
REM
REM
REM
REM
REM ./C.cell (83b17f8f8f26f35f83ac08ce21d4c963)
REM
REM compiler GCC version 8.3.0
REM options -cpp -mtune=generic -march=x86-64 -g -O0
REM seed -1011367401 1788929928 -562608601 -881559730 1321291819 579683606 -1634609122 -1518857985 -1861025748 -1270681607 1842324211 -2006675523 1994888079 -1970906481 -330905809 675211658 1911782983 206784464 -787173664 707461080 -582771081 -832822563 1970471707 438247186 -1672455190 -621740441 457873319 1485745678 2097360577 2097701583 -1976644894 1353814286 -1685331265
REM
CELL 1.54180  100.00000  100.00000  100.00000   90.00000   90.00000   90.00000
LATT -1
SFAC C  
C      1  0.5898350000000  0.5674120000000  0.4929040000000 1.0
C      1  0.4928620000000  0.5898240000000  0.5674230000000 1.0
C      1  0.5673930000000  0.4928620000000  0.5898470000000 1.0
C      1  0.5898410000000  0.4325980000000  0.5071220000000 1.0
C      1  0.4101670000000  0.4325910000000  0.4928500000000 1.0
C      1  0.4101570000000  0.5673990000000  0.5071240000000 1.0
C      1  0.4928920000000  0.4101750000000  0.4325750000000 1.0
C      1  0.5071190000000  0.4101480000000  0.5673880000000 1.0
C      1  0.5071280000000  0.5898530000000  0.4326140000000 1.0
C      1  0.5674180000000  0.5071460000000  0.4101730000000 1.0
C      1  0.4325810000000  0.5071010000000  0.5898300000000 1.0
C      1  0.4326080000000  0.4928910000000  0.4101500000000 1.0
C      1  0.4101590000000  0.5674020000000  0.4928780000000 1.0
C      1  0.5071080000000  0.5898250000000  0.5674250000000 1.0
C      1  0.4325820000000  0.4928540000000  0.5898270000000 1.0
C      1  0.4101650000000  0.4325880000000  0.5070960000000 1.0
C      1  0.5898430000000  0.4326010000000  0.4928760000000 1.0
C      1  0.5898330000000  0.5674090000000  0.5071500000000 1.0
C      1  0.5071380000000  0.4101760000000  0.4325770000000 1.0
C      1  0.4928720000000  0.4101470000000  0.5673860000000 1.0
C      1  0.4928810000000  0.5898520000000  0.4326120000000 1.0
C      1  0.4326070000000  0.5071380000000  0.4101530000000 1.0
C      1  0.5673920000000  0.5071090000000  0.5898500000000 1.0
C      1  0.5674190000000  0.4928990000000  0.4101700000000 1.0
C      1  0.5151000000000  0.4811290000000  0.6029420000000 1.0
C      1  0.6029460000000  0.5151240000000  0.4811670000000 1.0
C      1  0.4811410000000  0.6029400000000  0.5151330000000 1.0
C      1  0.5151280000000  0.5188730000000  0.3970620000000 1.0
C      1  0.4848700000000  0.5188290000000  0.6029460000000 1.0
C      1  0.4849020000000  0.4811690000000  0.3970500000000 1.0
C      1  0.6029420000000  0.4848880000000  0.5188630000000 1.0
C      1  0.3970600000000  0.4848840000000  0.4811310000000 1.0
C      1  0.3970530000000  0.5151040000000  0.5188390000000 1.0
C      1  0.4811570000000  0.3970580000000  0.4848620000000 1.0
C      1  0.5188550000000  0.3970540000000  0.5150960000000 1.0
C      1  0.5188470000000  0.6029480000000  0.4849100000000 1.0
C      1  0.4848720000000  0.4811270000000  0.6029380000000 1.0
C      1  0.3970580000000  0.5151120000000  0.4811370000000 1.0
C      1  0.5188430000000  0.6029420000000  0.5151380000000 1.0
C      1  0.4849000000000  0.5188710000000  0.3970580000000 1.0
C      1  0.5150980000000  0.5188310000000  0.6029500000000 1.0
C      1  0.5151300000000  0.4811710000000  0.3970540000000 1.0
C      1  0.3970540000000  0.4848760000000  0.5188330000000 1.0
C      1  0.6029470000000  0.4848960000000  0.4811610000000 1.0
C      1  0.6029400000000  0.5151160000000  0.5188690000000 1.0
C      1  0.5188590000000  0.3970600000000  0.4848670000000 1.0
C      1  0.4811530000000  0.3970520000000  0.5150900000000 1.0
C      1  0.4811450000000  0.6029460000000  0.4849040000000 1.0
C      1  0.5982710000000  0.4421330000000  0.4859680000000 1.0
C      1  0.4859680000000  0.5982770000000  0.4421420000000 1.0
C      1  0.4421110000000  0.4859420000000  0.5982550000000 1.0
C      1  0.5982610000000  0.5578790000000  0.5140600000000 1.0
C      1  0.4017330000000  0.5578730000000  0.4859640000000 1.0
C      1  0.4017350000000  0.4421150000000  0.5140080000000 1.0
C      1  0.4859630000000  0.4017210000000  0.5578530000000 1.0
C      1  0.5140480000000  0.4017470000000  0.4421060000000 1.0
C      1  0.5140200000000  0.5982550000000  0.5578980000000 1.0
C      1  0.4421380000000  0.5140510000000  0.4017290000000 1.0
C      1  0.5578610000000  0.5140170000000  0.5982770000000 1.0
C      1  0.5578910000000  0.4859900000000  0.4017390000000 1.0
C      1  0.4017390000000  0.4421210000000  0.4859400000000 1.0
C      1  0.5140370000000  0.5982790000000  0.4421470000000 1.0
C      1  0.5578620000000  0.4859490000000  0.5982710000000 1.0
C      1  0.4017290000000  0.5578670000000  0.5140320000000 1.0
C      1  0.5982650000000  0.5578840000000  0.4859920000000 1.0
C      1  0.5982670000000  0.4421270000000  0.5140360000000 1.0
C      1  0.5140320000000  0.4017230000000  0.5578580000000 1.0
C      1  0.4859800000000  0.4017450000000  0.4421020000000 1.0
C      1  0.4859520000000  0.5982530000000  0.5578940000000 1.0
C      1  0.5578890000000  0.5140580000000  0.4017450000000 1.0
C      1  0.4421090000000  0.5140100000000  0.5982610000000 1.0
C      1  0.4421390000000  0.4859830000000  0.4017230000000 1.0
C      1  0.5721560000000  0.4664760000000  0.5631450000000 1.0
C      1  0.5631420000000  0.5721740000000  0.4665090000000 1.0
C      1  0.4664710000000  0.5631250000000  0.5721720000000 1.0
C      1  0.5721710000000  0.5335320000000  0.4368760000000 1.0
C      1  0.4278250000000  0.5334980000000  0.5631380000000 1.0
C      1  0.4278480000000  0.4664940000000  0.4368410000000 1.0
C      1  0.5631410000000  0.4278330000000  0.5335090000000 1.0
C      1  0.4368680000000  0.4278400000000  0.4664610000000 1.0
C      1  0.4368490000000  0.5721530000000  0.5335210000000 1.0
C      1  0.4664990000000  0.4368710000000  0.4278190000000 1.0
C      1  0.5335080000000  0.4368460000000  0.5721550000000 1.0
C      1  0.5335220000000  0.5631580000000  0.4278550000000 1.0
C      1  0.4278290000000  0.4664680000000  0.5631240000000 1.0
C      1  0.4368590000000  0.5721670000000  0.4664910000000 1.0
C      1  0.5335010000000  0.5631290000000  0.5721810000000 1.0
C      1  0.4278440000000  0.5335240000000  0.4368550000000 1.0
C      1  0.5721520000000  0.5335060000000  0.5631590000000 1.0
C      1  0.5721750000000  0.4665020000000  0.4368620000000 1.0
C      1  0.4368580000000  0.4278260000000  0.5334910000000 1.0
C      1  0.5631510000000  0.4278470000000  0.4664790000000 1.0
C      1  0.5631320000000  0.5721600000000  0.5335390000000 1.0
C      1  0.5335290000000  0.4368750000000  0.4278280000000 1.0
C      1  0.4664780000000  0.4368420000000  0.5721460000000 1.0
C      1  0.4664920000000  0.5631540000000  0.4278450000000 1.0
C      1  0.4706490000000  0.5192930000000  0.3985310000000 1.0
C      1  0.3985310000000  0.4706260000000  0.5192530000000 1.0
C      1  0.5192840000000  0.3985390000000  0.4706180000000 1.0
C      1  0.4706220000000  0.4807040000000  0.6014600000000 1.0
C      1  0.5293800000000  0.4807490000000  0.3985320000000 1.0
C      1  0.5293480000000  0.5192540000000  0.6014770000000 1.0
C      1  0.3985330000000  0.5293620000000  0.4807180000000 1.0
C      1  0.6014640000000  0.5293660000000  0.5192940000000 1.0
C      1  0.6014730000000  0.4706460000000  0.4807350000000 1.0
C      1  0.5192630000000  0.6014630000000  0.5293880000000 1.0
C      1  0.4807250000000  0.6014730000000  0.4706540000000 1.0
C      1  0.4807280000000  0.3985240000000  0.5293400000000 1.0
C      1  0.5293780000000  0.5192960000000  0.3985400000000 1.0
C      1  0.6014670000000  0.4706380000000  0.5192820000000 1.0
C      1  0.4807370000000  0.3985370000000  0.4706120000000 1.0
C      1  0.5293510000000  0.4807070000000  0.6014690000000 1.0
C      1  0.4706520000000  0.4807460000000  0.3985230000000 1.0
C      1  0.4706200000000  0.5192510000000  0.6014680000000 1.0
C      1  0.6014690000000  0.5293740000000  0.4807470000000 1.0
C      1  0.3985270000000  0.5293540000000  0.5192650000000 1.0
C      1  0.3985360000000  0.4706340000000  0.4807060000000 1.0
C      1  0.4807160000000  0.6014610000000  0.5293820000000 1.0
C      1  0.5192720000000  0.6014760000000  0.4706600000000 1.0
C      1  0.5192750000000  0.3985270000000  0.5293460000000 1.0
C      1  0.4356610000000  0.5452170000000  0.4395870000000 1.0
C      1  0.4395840000000  0.4356420000000  0.5451870000000 1.0
C      1  0.5452220000000  0.4396030000000  0.4356490000000 1.0
C      1  0.4356490000000  0.4547750000000  0.5603940000000 1.0
C      1  0.5643570000000  0.4548080000000  0.4395870000000 1.0
C      1  0.5643340000000  0.5452000000000  0.5604320000000 1.0
C      1  0.4395900000000  0.5643510000000  0.4547960000000 1.0
C      1  0.5604030000000  0.5643390000000  0.5452310000000 1.0
C      1  0.5604230000000  0.4356680000000  0.4547870000000 1.0
C      1  0.5451960000000  0.5604020000000  0.5643640000000 1.0
C      1  0.4547970000000  0.5604240000000  0.4356610000000 1.0
C      1  0.4547860000000  0.4395710000000  0.5643260000000 1.0
C      1  0.5643510000000  0.5452250000000  0.4396060000000 1.0
C      1  0.5604100000000  0.4356490000000  0.5452040000000 1.0
C      1  0.4548040000000  0.4395980000000  0.4356360000000 1.0
C      1  0.5643390000000  0.4547830000000  0.5604130000000 1.0
C      1  0.4356660000000  0.4548000000000  0.4395680000000 1.0
C      1  0.4356430000000  0.5451920000000  0.5604130000000 1.0
C      1  0.5604160000000  0.5643580000000  0.4548130000000 1.0
C      1  0.4395770000000  0.5643320000000  0.5452130000000 1.0
C      1  0.4395970000000  0.4356610000000  0.4547690000000 1.0
C      1  0.4547780000000  0.5603970000000  0.5643510000000 1.0
C      1  0.5452140000000  0.5604290000000  0.4356740000000 1.0
C      1  0.5452030000000  0.4395760000000  0.5643390000000 1.0
C      1  0.5967320000000  0.4932450000000  0.5527580000000 1.0
C      1  0.5527400000000  0.5967440000000  0.4932780000000 1.0
C      1  0.4932330000000  0.5527250000000  0.5967490000000 1.0
C      1  0.5967470000000  0.5067660000000  0.4472700000000 1.0
C      1  0.4032520000000  0.5067330000000  0.5527330000000 1.0
C      1  0.4032680000000  0.4932550000000  0.4472390000000 1.0
C      1  0.5527500000000  0.4032620000000  0.5067380000000 1.0
C      1  0.4472620000000  0.4032590000000  0.4932230000000 1.0
C      1  0.4472480000000  0.5967350000000  0.5067620000000 1.0
C      1  0.4932670000000  0.4472740000000  0.4032490000000 1.0
C      1  0.5067390000000  0.4472350000000  0.5967300000000 1.0
C      1  0.5067610000000  0.5527660000000  0.4032720000000 1.0
C      1  0.4032530000000  0.4932340000000  0.5527300000000 1.0
C      1  0.4472500000000  0.5967380000000  0.4932620000000 1.0
C      1  0.5067330000000  0.5527260000000  0.5967510000000 1.0
C      1  0.4032680000000  0.5067550000000  0.4472420000000 1.0
C      1  0.5967310000000  0.5067450000000  0.5527610000000 1.0
C      1  0.5967480000000  0.4932670000000  0.4472670000000 1.0
C      1  0.4472600000000  0.4032560000000  0.5067220000000 1.0
C      1  0.5527520000000  0.4032650000000  0.4932380000000 1.0
C      1  0.5527390000000  0.5967410000000  0.5067770000000 1.0
C      1  0.5067670000000  0.4472750000000  0.4032510000000 1.0
C      1  0.4932390000000  0.4472340000000  0.5967280000000 1.0
C      1  0.4932610000000  0.5527650000000  0.4032700000000 1.0
C      1  0.4704950000000  0.6061860000000  0.4933010000000 1.0
C      1  0.4932700000000  0.4704780000000  0.6061790000000 1.0
C      1  0.6061910000000  0.4932960000000  0.4705140000000 1.0
C      1  0.4705060000000  0.3938100000000  0.5066910000000 1.0
C      1  0.5295070000000  0.3938160000000  0.4932660000000 1.0
C      1  0.5294920000000  0.6061870000000  0.5067430000000 1.0
C      1  0.4932970000000  0.5295210000000  0.3938190000000 1.0
C      1  0.5067000000000  0.5294780000000  0.6061940000000 1.0
C      1  0.5067340000000  0.4705230000000  0.3938080000000 1.0
C      1  0.6061820000000  0.5067170000000  0.5295160000000 1.0
C      1  0.3938170000000  0.5067160000000  0.4704860000000 1.0
C      1  0.3938090000000  0.4932710000000  0.5294830000000 1.0
C      1  0.5294940000000  0.6061900000000  0.4933090000000 1.0
C      1  0.5067030000000  0.4704790000000  0.6061810000000 1.0
C      1  0.3938180000000  0.4932830000000  0.4704840000000 1.0
C      1  0.5295050000000  0.3938140000000  0.5066990000000 1.0
C      1  0.4705080000000  0.3938130000000  0.4932570000000 1.0
C      1  0.4704930000000  0.6061840000000  0.5067340000000 1.0
C      1  0.5067300000000  0.5295220000000  0.3938210000000 1.0
C      1  0.4932660000000  0.5294770000000  0.6061920000000 1.0
C      1  0.4933000000000  0.4705220000000  0.3938060000000 1.0
C      1  0.3938090000000  0.5067040000000  0.5294860000000 1.0
C      1  0.6061900000000  0.5067290000000  0.4705170000000 1.0
C      1  0.6061830000000  0.4932840000000  0.5295140000000 1.0
C      1  0.4317240000000  0.4730960000000  0.4247470000000 1.0
C      1  0.4247700000000  0.4317120000000  0.4730600000000 1.0
C      1  0.4730990000000  0.4247740000000  0.4316920000000 1.0
C      1  0.4316990000000  0.5268960000000  0.5752340000000 1.0
C      1  0.5682980000000  0.5269350000000  0.4247770000000 1.0
C      1  0.5682790000000  0.4730730000000  0.5752420000000 1.0
C      1  0.4247540000000  0.5682790000000  0.5269190000000 1.0
C      1  0.5752380000000  0.5682990000000  0.4731100000000 1.0
C      1  0.5752380000000  0.4317100000000  0.5269120000000 1.0
C      1  0.4730700000000  0.5752220000000  0.5683000000000 1.0
C      1  0.5269210000000  0.5752540000000  0.4317310000000 1.0
C      1  0.5269100000000  0.4247490000000  0.5682770000000 1.0
C      1  0.5683010000000  0.4731040000000  0.4247660000000 1.0
C      1  0.5752460000000  0.4317210000000  0.4730810000000 1.0
C      1  0.5269300000000  0.4247780000000  0.4317000000000 1.0
C      1  0.5682760000000  0.5269040000000  0.5752530000000 1.0
C      1  0.4317210000000  0.5269270000000  0.4247580000000 1.0
C      1  0.4317020000000  0.4730650000000  0.5752230000000 1.0
C      1  0.5752300000000  0.5682880000000  0.5269400000000 1.0
C      1  0.4247620000000  0.5682900000000  0.4730880000000 1.0
C      1  0.4247620000000  0.4317010000000  0.5268900000000 1.0
C      1  0.5269010000000  0.5752260000000  0.5683080000000 1.0
C      1  0.4730900000000  0.5752510000000  0.4317230000000 1.0
C      1  0.4730790000000  0.4247460000000  0.5682690000000 1.0
C      1  0.5826560000000  0.5282480000000  0.4458220000000 1.0
C      1  0.4457960000000  0.5826400000000  0.5282410000000 1.0
C      1  0.5282230000000  0.4457890000000  0.5826420000000 1.0
C      1  0.5826430000000  0.4717620000000  0.5542010000000 1.0
C      1  0.4173600000000  0.4717740000000  0.4457870000000 1.0
C      1  0.4173410000000  0.5282160000000  0.5541890000000 1.0
C      1  0.4458140000000  0.4173530000000  0.4717430000000 1.0
C      1  0.5541960000000  0.4173480000000  0.5282230000000 1.0
C      1  0.5541950000000  0.5826590000000  0.4717930000000 1.0
C      1  0.5282410000000  0.5542140000000  0.4173660000000 1.0
C      1  0.4717530000000  0.5541770000000  0.5826570000000 1.0
C      1  0.4717830000000  0.4458200000000  0.4173350000000 1.0
C      1  0.4173570000000  0.5282380000000  0.4457990000000 1.0
C      1  0.5541860000000  0.5826470000000  0.5282570000000 1.0
C      1  0.4717590000000  0.4457860000000  0.5826340000000 1.0
C      1  0.4173440000000  0.4717520000000  0.5541780000000 1.0
C      1  0.5826590000000  0.4717840000000  0.4458110000000 1.0
C      1  0.5826400000000  0.5282260000000  0.5542130000000 1.0
C      1  0.5542040000000  0.4173600000000  0.4717590000000 1.0
C      1  0.4458050000000  0.4173410000000  0.5282070000000 1.0
C      1  0.4458040000000  0.5826520000000  0.4717770000000 1.0
C      1  0.4717770000000  0.5542110000000  0.4173580000000 1.0
C      1  0.5282170000000  0.5541800000000  0.5826650000000 1.0
C      1  0.5282470000000  0.4458230000000  0.4173430000000 1.0
C      1  0.5358920000000  0.4924950000000  0.6063390000000 1.0
C      1  0.6063340000000  0.5359150000000  0.4925380000000 1.0
C      1  0.4925030000000  0.6063270000000  0.5359280000000 1.0
C      1  0.5359220000000  0.5075090000000  0.3936720000000 1.0
C      1  0.4640770000000  0.5074610000000  0.6063310000000 1.0
C      1  0.4641090000000  0.4925350000000  0.3936580000000 1.0
C      1  0.6063360000000  0.4640970000000  0.5074930000000 1.0
C      1  0.3936680000000  0.4640880000000  0.4924920000000 1.0
C      1  0.3936620000000  0.5358990000000  0.5074770000000 1.0
C      1  0.4925260000000  0.3936720000000  0.4640700000000 1.0
C      1  0.5074860000000  0.3936580000000  0.5358860000000 1.0
C      1  0.5074840000000  0.6063430000000  0.4641160000000 1.0
C      1  0.4640780000000  0.4924910000000  0.6063280000000 1.0
C      1  0.3936640000000  0.5359030000000  0.4925070000000 1.0
C      1  0.5074740000000  0.6063280000000  0.5359300000000 1.0
C      1  0.4641080000000  0.5075050000000  0.3936610000000 1.0
C      1  0.5358910000000  0.5074650000000  0.6063420000000 1.0
C      1  0.5359230000000  0.4925390000000  0.3936690000000 1.0
C      1  0.3936660000000  0.4640850000000  0.5074620000000 1.0
C      1  0.6063380000000  0.4641010000000  0.4925230000000 1.0
C      1  0.6063320000000  0.5359120000000  0.5075080000000 1.0
C      1  0.5074970000000  0.3936730000000  0.4640720000000 1.0
C      1  0.4925160000000  0.3936570000000  0.5358840000000 1.0
C      1  0.4925140000000  0.6063420000000  0.4641140000000 1.0
C      1  0.5575000000000  0.5319590000000  0.4172170000000 1.0
C      1  0.4171940000000  0.5574790000000  0.5319380000000 1.0
C      1  0.5319350000000  0.4171920000000  0.5574780000000 1.0
C      1  0.5574800000000  0.4680480000000  0.5827990000000 1.0
C      1  0.4425240000000  0.4680760000000  0.4171870000000 1.0
C      1  0.4424960000000  0.5319180000000  0.5827960000000 1.0
C      1  0.4172100000000  0.4425120000000  0.4680380000000 1.0
C      1  0.5827970000000  0.4425080000000  0.5319380000000 1.0
C      1  0.5827990000000  0.5575020000000  0.4680860000000 1.0
C      1  0.5319410000000  0.5828110000000  0.4425320000000 1.0
C      1  0.4680490000000  0.5827840000000  0.5575030000000 1.0
C      1  0.4680750000000  0.4172120000000  0.4424880000000 1.0
C      1  0.4425200000000  0.5319520000000  0.4172000000000 1.0
C      1  0.5827900000000  0.5574880000000  0.5319620000000 1.0
C      1  0.4680590000000  0.4171880000000  0.5574680000000 1.0
C      1  0.4425000000000  0.4680410000000  0.5827830000000 1.0
C      1  0.5575040000000  0.4680820000000  0.4172040000000 1.0
C      1  0.5574760000000  0.5319240000000  0.5828130000000 1.0
C      1  0.5828060000000  0.4425210000000  0.4680620000000 1.0
C      1  0.4172010000000  0.4424980000000  0.5319140000000 1.0
C      1  0.4172030000000  0.5574920000000  0.4680620000000 1.0
C      1  0.4680650000000  0.5828080000000  0.4425220000000 1.0
C      1  0.5319250000000  0.5827880000000  0.5575120000000 1.0
C      1  0.5319510000000  0.4172160000000  0.4424980000000 1.0
C      1  0.4210640000000  0.4512280000000  0.5420960000000 1.0
C      1  0.5421290000000  0.4210790000000  0.4512310000000 1.0
C      1  0.4512500000000  0.5421310000000  0.4210690000000 1.0
C      1  0.4210700000000  0.5487630000000  0.4578810000000 1.0
C      1  0.5789240000000  0.5487550000000  0.5421390000000 1.0
C      1  0.5789420000000  0.4512550000000  0.4578840000000 1.0
C      1  0.5421050000000  0.5789260000000  0.5487810000000 1.0
C      1  0.4578850000000  0.5789410000000  0.4512520000000 1.0
C      1  0.4578800000000  0.4210540000000  0.5487360000000 1.0
C      1  0.4512320000000  0.4578640000000  0.5789170000000 1.0
C      1  0.5487730000000  0.4579020000000  0.4210650000000 1.0
C      1  0.5487450000000  0.5421040000000  0.5789490000000 1.0
C      1  0.5789300000000  0.4512370000000  0.5421190000000 1.0
C      1  0.4578950000000  0.4210750000000  0.4512190000000 1.0
C      1  0.5487680000000  0.5421360000000  0.4210830000000 1.0
C      1  0.5789360000000  0.5487720000000  0.4579040000000 1.0
C      1  0.4210580000000  0.5487450000000  0.5421160000000 1.0
C      1  0.4210760000000  0.4512450000000  0.4578610000000 1.0
C      1  0.4578710000000  0.5789210000000  0.5487690000000 1.0
C      1  0.5421200000000  0.5789460000000  0.4512640000000 1.0
C      1  0.5421150000000  0.4210590000000  0.5487480000000 1.0
C      1  0.5487500000000  0.4578690000000  0.5789310000000 1.0
C      1  0.4512550000000  0.4578960000000  0.4210510000000 1.0
C      1  0.4512270000000  0.5420980000000  0.5789350000000 1.0
C      1  0.4506730000000  0.4321280000000  0.4471370000000 1.0
C      1  0.4471710000000  0.4506720000000  0.4321020000000 1.0
C      1  0.4321300000000  0.4471640000000  0.4506410000000 1.0
C      1  0.4506500000000  0.5678660000000  0.5528490000000 1.0
C      1  0.5493420000000  0.5678940000000  0.4471790000000 1.0
C      1  0.5493350000000  0.4321120000000  0.5528350000000 1.0
C      1  0.4471450000000  0.5493210000000  0.5678820000000 1.0
C      1  0.5528490000000  0.5493560000000  0.4321380000000 1.0
C      1  0.5528350000000  0.4506510000000  0.5678770000000 1.0
C      1  0.4321100000000  0.5528280000000  0.5493390000000 1.0
C      1  0.5678840000000  0.5528560000000  0.4506820000000 1.0
C      1  0.5678760000000  0.4471520000000  0.5493370000000 1.0
C      1  0.5493500000000  0.4321340000000  0.4471510000000 1.0
C      1  0.5528550000000  0.4506790000000  0.4321180000000 1.0
C      1  0.5678900000000  0.4471720000000  0.4506610000000 1.0
C      1  0.5493270000000  0.5678720000000  0.5528630000000 1.0
C      1  0.4506650000000  0.5678880000000  0.4471650000000 1.0
C      1  0.4506580000000  0.4321060000000  0.5528210000000 1.0
C      1  0.5528290000000  0.5493280000000  0.5678980000000 1.0
C      1  0.4471650000000  0.5493490000000  0.4321230000000 1.0
C      1  0.4471510000000  0.4506440000000  0.5678620000000 1.0
C      1  0.5678700000000  0.5528360000000  0.5493590000000 1.0
C      1  0.4321240000000  0.5528480000000  0.4506630000000 1.0
C      1  0.4321160000000  0.4471440000000  0.5493180000000 1.0
C      1  0.5071980000000  0.6020000000000  0.5074020000000 1.0
C      1  0.5073650000000  0.5071840000000  0.6020040000000 1.0
C      1  0.6020000000000  0.5073840000000  0.5072210000000 1.0
C      1  0.5072120000000  0.3980010000000  0.4926000000000 1.0
C      1  0.4928000000000  0.3979970000000  0.5073580000000 1.0
C      1  0.4927900000000  0.6020020000000  0.4926400000000 1.0
C      1  0.5073950000000  0.4928170000000  0.3979990000000 1.0
C      1  0.4926060000000  0.4927740000000  0.6019980000000 1.0
C      1  0.4926340000000  0.5072260000000  0.3979990000000 1.0
C      1  0.6020020000000  0.4926280000000  0.4928080000000 1.0
C      1  0.3979980000000  0.4926130000000  0.5071890000000 1.0
C      1  0.3980000000000  0.5073750000000  0.4927820000000 1.0
C      1  0.4927880000000  0.6019990000000  0.5074000000000 1.0
C      1  0.4926050000000  0.5071840000000  0.6020010000000 1.0
C      1  0.3979980000000  0.5073720000000  0.5071920000000 1.0
C      1  0.4928020000000  0.3980000000000  0.4925980000000 1.0
C      1  0.5072100000000  0.3979980000000  0.5073600000000 1.0
C      1  0.5072000000000  0.6020030000000  0.4926420000000 1.0
C      1  0.4926350000000  0.4928160000000  0.3979960000000 1.0
C      1  0.5073660000000  0.4927750000000  0.6020000000000 1.0
C      1  0.5073940000000  0.5072260000000  0.3980020000000 1.0
C      1  0.3980010000000  0.4926160000000  0.4927790000000 1.0
C      1  0.6020000000000  0.4926250000000  0.5072180000000 1.0
C      1  0.6020020000000  0.5073870000000  0.4928110000000 1.0
C      1  0.5070980000000  0.3925380000000  0.4496880000000 1.0
C      1  0.4497250000000  0.5071030000000  0.3925210000000 1.0
C      1  0.3925290000000  0.4497020000000  0.5070580000000 1.0
C      1  0.5070700000000  0.6074630000000  0.5503140000000 1.0
C      1  0.4929170000000  0.6074830000000  0.4497310000000 1.0
C      1  0.4929150000000  0.3925160000000  0.5502670000000 1.0
C      1  0.4496940000000  0.4928910000000  0.6074640000000 1.0
C      1  0.5503060000000  0.4929410000000  0.3925330000000 1.0
C      1  0.5502740000000  0.5070650000000  0.6074810000000 1.0
C      1  0.3925250000000  0.5502850000000  0.4929110000000 1.0
C      1  0.6074690000000  0.5502950000000  0.5071100000000 1.0
C      1  0.6074770000000  0.4497170000000  0.4929210000000 1.0
C      1  0.4929300000000  0.3925370000000  0.4496860000000 1.0
C      1  0.5503060000000  0.5071090000000  0.3925360000000 1.0
C      1  0.6074750000000  0.4497150000000  0.5070890000000 1.0
C      1  0.4929020000000  0.6074620000000  0.5503120000000 1.0
C      1  0.5070850000000  0.6074840000000  0.4497330000000 1.0
C      1  0.5070830000000  0.3925170000000  0.5502690000000 1.0
C      1  0.5502750000000  0.4928970000000  0.6074790000000 1.0
C      1  0.4497260000000  0.4929350000000  0.3925180000000 1.0
C      1  0.4496940000000  0.5070590000000  0.6074670000000 1.0
C      1  0.6074710000000  0.5502980000000  0.4929420000000 1.0
C      1  0.3925230000000  0.5502830000000  0.5070790000000 1.0
C      1  0.3925310000000  0.4497050000000  0.4928900000000 1.0
C      1  0.5072280000000  0.5689590000000  0.5807850000000 1.0
C      1  0.5807590000000  0.5072350000000  0.5689890000000 1.0
C      1  0.5689700000000  0.5807720000000  0.5072710000000 1.0
C      1  0.5072600000000  0.4310420000000  0.4192170000000 1.0
C      1  0.4927480000000  0.4310080000000  0.5807550000000 1.0
C      1  0.4927630000000  0.5689920000000  0.4192430000000 1.0
C      1  0.5807800000000  0.4927750000000  0.4310350000000 1.0
C      1  0.4192210000000  0.4927370000000  0.5689620000000 1.0
C      1  0.4192400000000  0.5072540000000  0.4310140000000 1.0
C      1  0.5689810000000  0.4192360000000  0.4927490000000 1.0
C      1  0.4310280000000  0.4192250000000  0.5072180000000 1.0
C      1  0.4310210000000  0.5807670000000  0.4927620000000 1.0
C      1  0.4927400000000  0.5689580000000  0.5807830000000 1.0
C      1  0.4192200000000  0.5072250000000  0.5689650000000 1.0
C      1  0.4310190000000  0.5807640000000  0.5072510000000 1.0
C      1  0.4927720000000  0.4310410000000  0.4192150000000 1.0
C      1  0.5072370000000  0.4310080000000  0.5807570000000 1.0
C      1  0.5072520000000  0.5689920000000  0.4192450000000 1.0
C      1  0.4192410000000  0.4927650000000  0.4310110000000 1.0
C      1  0.5807600000000  0.4927460000000  0.5689860000000 1.0
C      1  0.5807790000000  0.5072630000000  0.4310380000000 1.0
C      1  0.4310300000000  0.4192280000000  0.4927290000000 1.0
C      1  0.5689790000000  0.4192330000000  0.5072380000000 1.0
C      1  0.5689720000000  0.5807750000000  0.4927820000000 1.0
C      1  0.4046100000000  0.4624200000000  0.4702120000000 1.0
C      1  0.4702440000000  0.4046090000000  0.4623960000000 1.0
C      1  0.4624350000000  0.4702510000000  0.4045920000000 1.0
C      1  0.4045970000000  0.5375690000000  0.5297610000000 1.0
C      1  0.5953990000000  0.5375920000000  0.4702550000000 1.0
C      1  0.5953950000000  0.4624190000000  0.5297730000000 1.0
C      1  0.4702220000000  0.5953870000000  0.5375960000000 1.0
C      1  0.5297670000000  0.5954060000000  0.4624440000000 1.0
C      1  0.5297670000000  0.4045970000000  0.5375650000000 1.0
C      1  0.4624040000000  0.5297450000000  0.5953970000000 1.0
C      1  0.5375920000000  0.5297890000000  0.4046150000000 1.0
C      1  0.5375680000000  0.4702160000000  0.5953960000000 1.0
C      1  0.5954030000000  0.4624310000000  0.4702390000000 1.0
C      1  0.5297780000000  0.4046130000000  0.4624040000000 1.0
C      1  0.5375960000000  0.4702550000000  0.4046030000000 1.0
C      1  0.5953900000000  0.5375800000000  0.5297880000000 1.0
C      1  0.4046050000000  0.5375810000000  0.4702270000000 1.0
C      1  0.4046010000000  0.4624080000000  0.5297450000000 1.0
C      1  0.5297560000000  0.5953910000000  0.5376040000000 1.0
C      1  0.4702330000000  0.5954030000000  0.4624350000000 1.0
C      1  0.4702330000000  0.4045940000000  0.5375560000000 1.0
C      1  0.5375650000000  0.5297490000000  0.5954080000000 1.0
C      1  0.4624320000000  0.5297840000000  0.4046040000000 1.0
C      1  0.4624080000000  0.4702110000000  0.5953850000000 1.0
C      1  0.4415910000000  0.5870360000000  0.4850010000000 1.0
C      1  0.4849820000000  0.4415750000000  0.5870230000000 1.0
C      1  0.5870460000000  0.4850090000000  0.4416030000000 1.0
C      1  0.4415970000000  0.4129570000000  0.5149820000000 1.0
C      1  0.5584140000000  0.4129700000000  0.4849820000000 1.0
C      1  0.5583990000000  0.5870370000000  0.5150350000000 1.0
C      1  0.4850000000000  0.5584230000000  0.4129730000000 1.0
C      1  0.5149930000000  0.5583890000000  0.5870510000000 1.0
C      1  0.5150250000000  0.4416120000000  0.4129530000000 1.0
C      1  0.5870270000000  0.5150020000000  0.5584220000000 1.0
C      1  0.4129710000000  0.5150160000000  0.4415840000000 1.0
C      1  0.4129560000000  0.4849740000000  0.5583910000000 1.0
C      1  0.5584030000000  0.5870430000000  0.4850180000000 1.0
C      1  0.5150000000000  0.4415760000000  0.5870270000000 1.0
C      1  0.4129730000000  0.4849980000000  0.4415780000000 1.0
C      1  0.5584090000000  0.4129640000000  0.5149990000000 1.0
C      1  0.4416010000000  0.4129630000000  0.4849650000000 1.0
C      1  0.4415860000000  0.5870300000000  0.5150180000000 1.0
C      1  0.5150180000000  0.5584250000000  0.4129780000000 1.0
C      1  0.4849750000000  0.5583880000000  0.5870470000000 1.0
C      1  0.4850070000000  0.4416110000000  0.4129490000000 1.0
C      1  0.4129540000000  0.5149910000000  0.5583970000000 1.0
C      1  0.5870440000000  0.5150260000000  0.4416090000000 1.0
C      1  0.5870290000000  0.4849840000000  0.5584160000000 1.0
C      1  0.5138640000000  0.4214280000000  0.4271450000000 1.0
C      1  0.4271700000000  0.5138610000000  0.4214050000000 1.0
C      1  0.4214150000000  0.4271520000000  0.5138220000000 1.0
C      1  0.5138340000000  0.5785730000000  0.5728590000000 1.0
C      1  0.4861570000000  0.5786020000000  0.4271740000000 1.0
C      1  0.4861450000000  0.4213970000000  0.5728220000000 1.0
C      1  0.4271490000000  0.4861310000000  0.5785740000000 1.0
C      1  0.5728530000000  0.4861720000000  0.4214200000000 1.0
C      1  0.5728280000000  0.5138370000000  0.5786010000000 1.0
C      1  0.4214100000000  0.5728390000000  0.4861550000000 1.0
C      1  0.5785810000000  0.5728420000000  0.5138750000000 1.0
C      1  0.5785940000000  0.4271670000000  0.4861480000000 1.0
C      1  0.4861660000000  0.4214270000000  0.4271410000000 1.0
C      1  0.5728510000000  0.5138690000000  0.4214260000000 1.0
C      1  0.5785900000000  0.4271610000000  0.5138450000000 1.0
C      1  0.4861360000000  0.5785720000000  0.5728550000000 1.0
C      1  0.5138550000000  0.5786030000000  0.4271780000000 1.0
C      1  0.5138430000000  0.4213980000000  0.5728260000000 1.0
C      1  0.5728300000000  0.4861390000000  0.5785950000000 1.0
C      1  0.4271720000000  0.4861630000000  0.4213990000000 1.0
C      1  0.4271470000000  0.5138280000000  0.5785800000000 1.0
C      1  0.5785850000000  0.5728480000000  0.4861780000000 1.0
C      1  0.4214060000000  0.5728330000000  0.5138520000000 1.0
C      1  0.4214190000000  0.4271580000000  0.4861250000000 1.0
C      1  0.5515080000000  0.5255210000000  0.4064810000000 1.0
C      1  0.4064620000000  0.5514850000000  0.5254960000000 1.0
C      1  0.5254970000000  0.4064600000000  0.5514800000000 1.0
C      1  0.5514840000000  0.4744850000000  0.5935340000000 1.0
C      1  0.4485190000000  0.4745180000000  0.4064560000000 1.0
C      1  0.4484890000000  0.5254760000000  0.5935290000000 1.0
C      1  0.4064750000000  0.4485040000000  0.4744770000000 1.0
C      1  0.5935310000000  0.4485050000000  0.5255020000000 1.0
C      1  0.5935320000000  0.5515060000000  0.4745260000000 1.0
C      1  0.5255010000000  0.5935430000000  0.4485270000000 1.0
C      1  0.4744880000000  0.5935190000000  0.5515110000000 1.0
C      1  0.4745140000000  0.4064780000000  0.4484810000000 1.0
C      1  0.4485160000000  0.5255150000000  0.4064660000000 1.0
C      1  0.5935250000000  0.5514960000000  0.5255230000000 1.0
C      1  0.4744990000000  0.4064570000000  0.5514730000000 1.0
C      1  0.4484920000000  0.4744790000000  0.5935190000000 1.0
C      1  0.5515110000000  0.4745240000000  0.4064710000000 1.0
C      1  0.5514810000000  0.5254820000000  0.5935440000000 1.0
C      1  0.5935380000000  0.4485150000000  0.4745040000000 1.0
C      1  0.4064680000000  0.4484940000000  0.5254740000000 1.0
C      1  0.4064690000000  0.5514950000000  0.4744980000000 1.0
C      1  0.4745030000000  0.5935400000000  0.4485200000000 1.0
C      1  0.5254860000000  0.5935220000000  0.5515190000000 1.0
C      1  0.5255120000000  0.4064810000000  0.4484890000000 1.0
C      1  0.4635980000000  0.5425140000000  0.4136200000000 1.0
C      1  0.4136120000000  0.4635740000000  0.5424780000000 1.0
C      1  0.5425080000000  0.4136260000000  0.4635770000000 1.0
C      1  0.4635780000000  0.4574820000000  0.5863700000000 1.0
C      1  0.5364270000000  0.4575220000000  0.4136130000000 1.0
C      1  0.5363970000000  0.5424820000000  0.5863980000000 1.0
C      1  0.4136200000000  0.5364150000000  0.4574970000000 1.0
C      1  0.5863760000000  0.5364080000000  0.5425180000000 1.0
C      1  0.5863920000000  0.4636020000000  0.4575070000000 1.0
C      1  0.5424880000000  0.5863790000000  0.5364360000000 1.0
C      1  0.4575020000000  0.5863890000000  0.4636000000000 1.0
C      1  0.4575020000000  0.4136060000000  0.5363880000000 1.0
C      1  0.5364220000000  0.5425180000000  0.4136300000000 1.0
C      1  0.5863800000000  0.4635850000000  0.5425030000000 1.0
C      1  0.4575120000000  0.4136210000000  0.4635640000000 1.0
C      1  0.5364020000000  0.4574860000000  0.5863800000000 1.0
C      1  0.4636030000000  0.4575180000000  0.4136020000000 1.0
C      1  0.4635730000000  0.5424780000000  0.5863870000000 1.0
C      1  0.5863880000000  0.5364250000000  0.4575220000000 1.0
C      1  0.4136080000000  0.5363980000000  0.5424930000000 1.0
C      1  0.4136240000000  0.4635920000000  0.4574820000000 1.0
C      1  0.4574920000000  0.5863740000000  0.5364230000000 1.0
C      1  0.5424980000000  0.5863940000000  0.4636120000000 1.0
C      1  0.5424980000000  0.4136110000000  0.5364000000000 1.0
C      1  0.4999870000000  0.4577410000000  0.6042850000000 1.0
C      1  0.6043000000000  0.5000150000000  0.4577780000000 1.0
C      1  0.4577560000000  0.6042910000000  0.5000150000000 1.0
C      1  0.5000130000000  0.5422590000000  0.3957150000000 1.0
C      1  0.4999820000000  0.5422160000000  0.6043020000000 1.0
C      1  0.5000180000000  0.4577840000000  0.3956980000000 1.0
C      1  0.6042870000000  0.4999970000000  0.5422520000000 1.0
C      1  0.3957130000000  0.5000030000000  0.4577480000000 1.0
C      1  0.3957000000000  0.4999850000000  0.5422220000000 1.0
C      1  0.4577690000000  0.3957040000000  0.4999720000000 1.0
C      1  0.5422430000000  0.3957090000000  0.4999850000000 1.0
C      1  0.5422310000000  0.6042960000000  0.5000280000000 1.0
END
