TITL C-788192-7332-26 0.269546921822562 1000000 -3632.94451343649 0 0 540 (C1) n - 1
REM
REM in /scratch/bkarasulu/Only-C240/Try5-OnlyC540
REM
REM
REM
REM
REM
REM ./C.cell (ca8386fd40049eeb7b0880ff2b47ce8b)
REM
REM compiler GCC version 9.2.1 20190827 (Red Hat 9.2.1-1)
REM options -cpp -mtune=generic -march=x86-64 -g -O0 -fpre-include=/usr/include/finclude/math-vector-fortran.h
REM seed -688576010 -169838395 -2045432889 1423052833 -456133743 1978635950 -549381217 -1578272058 1434686313 -1426264203 -753238971 -223147517 -1297914711 -1314881861 -1437258515 1970026402 -1216524624 39786292 -512611325 2071157996 -636915742 -922609308 1127385217 -574627407 -1791555543 1659292908 452816545 -494641959 -1406012199 71414862 499501469 501475376 -201082794
REM
CELL 1.54180  100.00000  100.00000  100.00000   90.00000   90.00000   90.00000
LATT -1
SFAC C  
C      1  0.5179040000000  0.4459570000000  0.3993050000000 1.0
C      1  0.5416230000000  0.4603550000000  0.6002770000000 1.0
C      1  0.5562510000000  0.4894820000000  0.4003150000000 1.0
C      1  0.5556480000000  0.5158690000000  0.5995840000000 1.0
C      1  0.5377320000000  0.5439080000000  0.4010590000000 1.0
C      1  0.5140610000000  0.5565520000000  0.5988550000000 1.0
C      1  0.4804680000000  0.5555560000000  0.4001940000000 1.0
C      1  0.4584130000000  0.5403560000000  0.5989090000000 1.0
C      1  0.4432790000000  0.5110390000000  0.4014370000000 1.0
C      1  0.4438510000000  0.4845990000000  0.5992910000000 1.0
C      1  0.4609300000000  0.4559990000000  0.3987340000000 1.0
C      1  0.4853940000000  0.4440900000000  0.5988740000000 1.0
C      1  0.4730110000000  0.5711730000000  0.4698370000000 1.0
C      1  0.4438620000000  0.5538960000000  0.5298870000000 1.0
C      1  0.4239470000000  0.5122690000000  0.4698170000000 1.0
C      1  0.4263780000000  0.4771870000000  0.5299540000000 1.0
C      1  0.4509240000000  0.4399540000000  0.4684070000000 1.0
C      1  0.4838930000000  0.4249520000000  0.5290310000000 1.0
C      1  0.5263630000000  0.4260970000000  0.4672860000000 1.0
C      1  0.5573380000000  0.4493920000000  0.5314550000000 1.0
C      1  0.5736180000000  0.4864940000000  0.4697140000000 1.0
C      1  0.5745790000000  0.5240690000000  0.5304190000000 1.0
C      1  0.5480070000000  0.5594060000000  0.4699930000000 1.0
C      1  0.5187360000000  0.5742290000000  0.5304060000000 1.0
C      1  0.5870670000000  0.4892780000000  0.5565620000000 1.0
C      1  0.5780980000000  0.5396030000000  0.4412690000000 1.0
C      1  0.5332940000000  0.5861840000000  0.5632440000000 1.0
C      1  0.5047390000000  0.5881250000000  0.4418150000000 1.0
C      1  0.4664030000000  0.5829620000000  0.5567160000000 1.0
C      1  0.4264650000000  0.5490430000000  0.4421670000000 1.0
C      1  0.4124250000000  0.5119260000000  0.5567130000000 1.0
C      1  0.4201230000000  0.4586040000000  0.4411620000000 1.0
C      1  0.4473260000000  0.4309400000000  0.5561060000000 1.0
C      1  0.4918140000000  0.4086700000000  0.4427740000000 1.0
C      1  0.5355310000000  0.4198300000000  0.5588820000000 1.0
C      1  0.5720860000000  0.4503420000000  0.4419940000000 1.0
C      1  0.5594820000000  0.4537290000000  0.5569950000000 1.0
C      1  0.5739100000000  0.4920920000000  0.4441270000000 1.0
C      1  0.5698090000000  0.5282430000000  0.5559270000000 1.0
C      1  0.5423630000000  0.5615910000000  0.4447840000000 1.0
C      1  0.5115350000000  0.5731280000000  0.5554110000000 1.0
C      1  0.4682570000000  0.5686380000000  0.4443190000000 1.0
C      1  0.4419360000000  0.5479570000000  0.5553920000000 1.0
C      1  0.4236890000000  0.5075950000000  0.4442720000000 1.0
C      1  0.4298880000000  0.4731340000000  0.5555710000000 1.0
C      1  0.4549130000000  0.4368870000000  0.4427790000000 1.0
C      1  0.4900260000000  0.4265390000000  0.5545700000000 1.0
C      1  0.5301210000000  0.4307830000000  0.4420170000000 1.0
C      1  0.3978170000000  0.5374710000000  0.4791800000000 1.0
C      1  0.3921420000000  0.4909890000000  0.5189900000000 1.0
C      1  0.4147970000000  0.4295050000000  0.4794310000000 1.0
C      1  0.4548830000000  0.4025770000000  0.5184240000000 1.0
C      1  0.5142170000000  0.3891580000000  0.4800620000000 1.0
C      1  0.5677490000000  0.4142230000000  0.5233030000000 1.0
C      1  0.6013430000000  0.4605700000000  0.4786590000000 1.0
C      1  0.6069250000000  0.5096250000000  0.5175660000000 1.0
C      1  0.5880880000000  0.5655790000000  0.4793960000000 1.0
C      1  0.5456540000000  0.5994800000000  0.5207530000000 1.0
C      1  0.4816510000000  0.6075570000000  0.4794590000000 1.0
C      1  0.4383170000000  0.5901030000000  0.5184620000000 1.0
C      1  0.3986790000000  0.4953970000000  0.5288180000000 1.0
C      1  0.4187480000000  0.4364080000000  0.4695880000000 1.0
C      1  0.4544830000000  0.4100750000000  0.5284790000000 1.0
C      1  0.5118600000000  0.3945150000000  0.4689700000000 1.0
C      1  0.5597060000000  0.4176780000000  0.5324850000000 1.0
C      1  0.5927800000000  0.4605600000000  0.4693200000000 1.0
C      1  0.6015100000000  0.5055210000000  0.5281600000000 1.0
C      1  0.5823370000000  0.5607750000000  0.4692890000000 1.0
C      1  0.5470840000000  0.5929860000000  0.5316030000000 1.0
C      1  0.4855910000000  0.6006680000000  0.4695780000000 1.0
C      1  0.4459690000000  0.5872250000000  0.5280770000000 1.0
C      1  0.4052920000000  0.5375450000000  0.4689600000000 1.0
C      1  0.4332880000000  0.5345910000000  0.4802040000000 1.0
C      1  0.4251300000000  0.5007730000000  0.5182450000000 1.0
C      1  0.4364280000000  0.4590320000000  0.4793370000000 1.0
C      1  0.4630610000000  0.4358330000000  0.5173230000000 1.0
C      1  0.5032120000000  0.4216450000000  0.4769600000000 1.0
C      1  0.5379280000000  0.4353480000000  0.5205070000000 1.0
C      1  0.5650310000000  0.4637210000000  0.4808230000000 1.0
C      1  0.5746810000000  0.5009910000000  0.5179060000000 1.0
C      1  0.5635970000000  0.5413390000000  0.4797860000000 1.0
C      1  0.5411990000000  0.5651500000000  0.5209890000000 1.0
C      1  0.4971430000000  0.5747400000000  0.4802670000000 1.0
C      1  0.4639030000000  0.5666920000000  0.5182580000000 1.0
C      1  0.5681360000000  0.4822470000000  0.3976970000000 1.0
C      1  0.5695720000000  0.5143310000000  0.6021140000000 1.0
C      1  0.5500200000000  0.5506130000000  0.3989020000000 1.0
C      1  0.5229700000000  0.5677250000000  0.6003360000000 1.0
C      1  0.4802730000000  0.5694410000000  0.3975420000000 1.0
C      1  0.4526330000000  0.5530450000000  0.6013960000000 1.0
C      1  0.4308780000000  0.5158990000000  0.3970110000000 1.0
C      1  0.4299350000000  0.4854340000000  0.6017560000000 1.0
C      1  0.4507000000000  0.4468110000000  0.3955350000000 1.0
C      1  0.4774890000000  0.4325440000000  0.6009060000000 1.0
C      1  0.5175490000000  0.4320660000000  0.3965770000000 1.0
C      1  0.5480620000000  0.4481140000000  0.6032520000000 1.0
C      1  0.5566930000000  0.4941440000000  0.4264420000000 1.0
C      1  0.5540360000000  0.5208130000000  0.5735950000000 1.0
C      1  0.5329820000000  0.5468740000000  0.4269750000000 1.0
C      1  0.5079400000000  0.5561010000000  0.5732450000000 1.0
C      1  0.4759280000000  0.5536100000000  0.4261760000000 1.0
C      1  0.4553040000000  0.5362980000000  0.5727850000000 1.0
C      1  0.4408520000000  0.5103610000000  0.4265440000000 1.0
C      1  0.4459620000000  0.4796320000000  0.5733230000000 1.0
C      1  0.4630310000000  0.4521680000000  0.4250340000000 1.0
C      1  0.4914310000000  0.4432020000000  0.5730800000000 1.0
C      1  0.5227970000000  0.4478400000000  0.4252650000000 1.0
C      1  0.5453400000000  0.4641000000000  0.5743600000000 1.0
C      1  0.5357140000000  0.5144310000000  0.4455950000000 1.0
C      1  0.5250010000000  0.5304510000000  0.5549760000000 1.0
C      1  0.5047650000000  0.5382150000000  0.4450500000000 1.0
C      1  0.4863590000000  0.5368960000000  0.5544800000000 1.0
C      1  0.4693320000000  0.5237610000000  0.4438290000000 1.0
C      1  0.4617010000000  0.5066120000000  0.5548430000000 1.0
C      1  0.4647240000000  0.4840880000000  0.4423760000000 1.0
C      1  0.4754320000000  0.4706410000000  0.5562290000000 1.0
C      1  0.4938250000000  0.4618520000000  0.4433810000000 1.0
C      1  0.5139520000000  0.4641670000000  0.5560660000000 1.0
C      1  0.5302780000000  0.4757420000000  0.4445550000000 1.0
C      1  0.5383680000000  0.4937020000000  0.5561390000000 1.0
C      1  0.4266500000000  0.5260320000000  0.4717240000000 1.0
C      1  0.4224890000000  0.4906630000000  0.5272170000000 1.0
C      1  0.4401890000000  0.4487610000000  0.4710390000000 1.0
C      1  0.4702700000000  0.4283830000000  0.5263200000000 1.0
C      1  0.5141510000000  0.4192250000000  0.4691900000000 1.0
C      1  0.5478840000000  0.4390080000000  0.5291870000000 1.0
C      1  0.5713450000000  0.4727180000000  0.4724060000000 1.0
C      1  0.5779880000000  0.5106230000000  0.5271410000000 1.0
C      1  0.5596740000000  0.5516060000000  0.4715380000000 1.0
C      1  0.5332830000000  0.5726490000000  0.5293440000000 1.0
C      1  0.4861650000000  0.5761000000000  0.4720640000000 1.0
C      1  0.4534320000000  0.5641870000000  0.5269800000000 1.0
C      1  0.5720000000000  0.5712470000000  0.5116820000000 1.0
C      1  0.5207680000000  0.5933870000000  0.4962880000000 1.0
C      1  0.4785420000000  0.5958010000000  0.5126000000000 1.0
C      1  0.4284560000000  0.5676800000000  0.4916200000000 1.0
C      1  0.4058940000000  0.5273830000000  0.5118230000000 1.0
C      1  0.4057370000000  0.4714190000000  0.4914590000000 1.0
C      1  0.4293740000000  0.4313860000000  0.5112320000000 1.0
C      1  0.4766940000000  0.4028080000000  0.4892600000000 1.0
C      1  0.5267930000000  0.4058790000000  0.5095300000000 1.0
C      1  0.5689110000000  0.4300590000000  0.4920170000000 1.0
C      1  0.5950150000000  0.4732290000000  0.5108310000000 1.0
C      1  0.5941350000000  0.5276200000000  0.4888760000000 1.0
C      1  0.4780870000000  0.4704960000000  0.5417340000000 1.0
C      1  0.4950600000000  0.4627770000000  0.4581890000000 1.0
C      1  0.5146210000000  0.4662380000000  0.5413450000000 1.0
C      1  0.5289770000000  0.4774350000000  0.4592300000000 1.0
C      1  0.5371000000000  0.4956710000000  0.5415160000000 1.0
C      1  0.5332500000000  0.5142890000000  0.4603030000000 1.0
C      1  0.5224680000000  0.5297690000000  0.5403310000000 1.0
C      1  0.5031970000000  0.5361310000000  0.4595910000000 1.0
C      1  0.4855960000000  0.5340170000000  0.5398930000000 1.0
C      1  0.4696310000000  0.5213770000000  0.4584010000000 1.0
C      1  0.4636250000000  0.5040830000000  0.5402960000000 1.0
C      1  0.4655210000000  0.4844350000000  0.4570730000000 1.0
C      1  0.4376670000000  0.4419080000000  0.5157820000000 1.0
C      1  0.4785010000000  0.4154020000000  0.4834090000000 1.0
C      1  0.5202720000000  0.4170380000000  0.5147820000000 1.0
C      1  0.5596820000000  0.4382990000000  0.4855970000000 1.0
C      1  0.5821100000000  0.4759550000000  0.5160250000000 1.0
C      1  0.5818550000000  0.5228690000000  0.4838900000000 1.0
C      1  0.5659560000000  0.5594290000000  0.5165890000000 1.0
C      1  0.5209880000000  0.5815610000000  0.4889180000000 1.0
C      1  0.4836000000000  0.5836810000000  0.5175410000000 1.0
C      1  0.4384620000000  0.5597450000000  0.4860940000000 1.0
C      1  0.4190730000000  0.5259160000000  0.5166920000000 1.0
C      1  0.4174010000000  0.4761980000000  0.4855430000000 1.0
C      1  0.4837470000000  0.4814350000000  0.5628490000000 1.0
C      1  0.4961250000000  0.4751590000000  0.4366230000000 1.0
C      1  0.5086080000000  0.4768140000000  0.5629250000000 1.0
C      1  0.5197200000000  0.4840390000000  0.4374550000000 1.0
C      1  0.5248910000000  0.4959220000000  0.5627800000000 1.0
C      1  0.5236200000000  0.5090910000000  0.4381330000000 1.0
C      1  0.5165120000000  0.5199090000000  0.5621700000000 1.0
C      1  0.5038670000000  0.5249310000000  0.4377650000000 1.0
C      1  0.4915350000000  0.5245350000000  0.5618960000000 1.0
C      1  0.4802960000000  0.5157240000000  0.4368930000000 1.0
C      1  0.4751390000000  0.5051410000000  0.5621700000000 1.0
C      1  0.4766060000000  0.4907580000000  0.4361770000000 1.0
C      1  0.5054470000000  0.4143700000000  0.5176860000000 1.0
C      1  0.5484010000000  0.4302860000000  0.4795140000000 1.0
C      1  0.5755030000000  0.4640120000000  0.5219130000000 1.0
C      1  0.5825400000000  0.5083170000000  0.4801900000000 1.0
C      1  0.5749670000000  0.5482230000000  0.5192580000000 1.0
C      1  0.5349120000000  0.5766890000000  0.4847170000000 1.0
C      1  0.4977720000000  0.5838190000000  0.5218280000000 1.0
C      1  0.4502130000000  0.5680170000000  0.4816540000000 1.0
C      1  0.4252820000000  0.5386740000000  0.5216930000000 1.0
C      1  0.4158780000000  0.4906340000000  0.4813950000000 1.0
C      1  0.4299280000000  0.4536400000000  0.5211570000000 1.0
C      1  0.4654650000000  0.4219310000000  0.4799700000000 1.0
C      1  0.5515920000000  0.4636160000000  0.5125290000000 1.0
C      1  0.5603600000000  0.4978190000000  0.4867790000000 1.0
C      1  0.5584210000000  0.5302890000000  0.5143810000000 1.0
C      1  0.5345410000000  0.5521580000000  0.4888870000000 1.0
C      1  0.5077010000000  0.5631450000000  0.5116160000000 1.0
C      1  0.4704890000000  0.5546000000000  0.4876340000000 1.0
C      1  0.4481760000000  0.5383330000000  0.5113310000000 1.0
C      1  0.4376800000000  0.5019170000000  0.4869870000000 1.0
C      1  0.4416670000000  0.4736380000000  0.5110750000000 1.0
C      1  0.4672110000000  0.4469140000000  0.4849950000000 1.0
C      1  0.4941420000000  0.4355790000000  0.5104720000000 1.0
C      1  0.5265110000000  0.4410480000000  0.4867320000000 1.0
C      1  0.5900760000000  0.5040870000000  0.5352290000000 1.0
C      1  0.5727250000000  0.5540510000000  0.4624130000000 1.0
C      1  0.5415480000000  0.5827760000000  0.5386430000000 1.0
C      1  0.4895070000000  0.5894820000000  0.4630330000000 1.0
C      1  0.4527560000000  0.5778690000000  0.5351270000000 1.0
C      1  0.4170700000000  0.5356800000000  0.4626040000000 1.0
C      1  0.4102990000000  0.4968540000000  0.5355900000000 1.0
C      1  0.4265240000000  0.4450010000000  0.4626070000000 1.0
C      1  0.4589860000000  0.4210380000000  0.5349640000000 1.0
C      1  0.5100570000000  0.4053540000000  0.4609860000000 1.0
C      1  0.5505250000000  0.4257160000000  0.5383240000000 1.0
C      1  0.5811200000000  0.4629270000000  0.4630230000000 1.0
C      1  0.5425300000000  0.4227380000000  0.5489890000000 1.0
C      1  0.5761640000000  0.4563880000000  0.4521240000000 1.0
C      1  0.5884570000000  0.4961390000000  0.5462250000000 1.0
C      1  0.5751740000000  0.5465450000000  0.4512130000000 1.0
C      1  0.5387000000000  0.5841960000000  0.5519140000000 1.0
C      1  0.4973280000000  0.5885880000000  0.4518310000000 1.0
C      1  0.4600740000000  0.5804680000000  0.5462770000000 1.0
C      1  0.4220390000000  0.5425240000000  0.4518450000000 1.0
C      1  0.4115960000000  0.5047520000000  0.5465780000000 1.0
C      1  0.4231570000000  0.4521290000000  0.4513820000000 1.0
C      1  0.4529300000000  0.4263880000000  0.5459520000000 1.0
C      1  0.5011070000000  0.4059960000000  0.4506360000000 1.0
C      1  0.5577730000000  0.5888650000000  0.4822290000000 1.0
C      1  0.5098710000000  0.6036860000000  0.5335320000000 1.0
C      1  0.4455820000000  0.5932230000000  0.4782360000000 1.0
C      1  0.4095070000000  0.5573060000000  0.5263780000000 1.0
C      1  0.3915780000000  0.4990300000000  0.4785880000000 1.0
C      1  0.4059040000000  0.4497050000000  0.5263830000000 1.0
C      1  0.4454580000000  0.4055840000000  0.4779030000000 1.0
C      1  0.5029620000000  0.3887050000000  0.5188270000000 1.0
C      1  0.5510830000000  0.4056330000000  0.4764800000000 1.0
C      1  0.5916350000000  0.4452050000000  0.5273460000000 1.0
C      1  0.6065820000000  0.4993440000000  0.4765550000000 1.0
C      1  0.5989360000000  0.5575220000000  0.5178460000000 1.0
C      1  0.5816440000000  0.5122410000000  0.6048190000000 1.0
C      1  0.5609480000000  0.5562410000000  0.3965130000000 1.0
C      1  0.5311850000000  0.5771540000000  0.6014030000000 1.0
C      1  0.4803980000000  0.5816480000000  0.3947400000000 1.0
C      1  0.4478720000000  0.5643240000000  0.6040600000000 1.0
C      1  0.4205640000000  0.5206210000000  0.3915610000000 1.0
C      1  0.4177330000000  0.4864460000000  0.6043760000000 1.0
C      1  0.4413770000000  0.4390840000000  0.3922030000000 1.0
C      1  0.4702840000000  0.4225320000000  0.6031190000000 1.0
C      1  0.5169180000000  0.4199000000000  0.3936930000000 1.0
C      1  0.5534920000000  0.4372590000000  0.6063340000000 1.0
C      1  0.5784140000000  0.4756480000000  0.3949130000000 1.0
C      1  0.4783730000000  0.4514140000000  0.4262170000000 1.0
C      1  0.5072270000000  0.4456330000000  0.5722570000000 1.0
C      1  0.5348810000000  0.4578720000000  0.4272630000000 1.0
C      1  0.5513380000000  0.4787890000000  0.5724450000000 1.0
C      1  0.5540000000000  0.5095240000000  0.4286850000000 1.0
C      1  0.5440900000000  0.5329770000000  0.5715110000000 1.0
C      1  0.5181110000000  0.5519610000000  0.4285380000000 1.0
C      1  0.4925850000000  0.5548770000000  0.5711250000000 1.0
C      1  0.4638840000000  0.5430140000000  0.4277800000000 1.0
C      1  0.4489750000000  0.5219200000000  0.5708380000000 1.0
C      1  0.4461960000000  0.4828490000000  0.4247330000000 1.0
C      1  0.4556300000000  0.4669420000000  0.5719850000000 1.0
C      1  0.4773720000000  0.4929110000000  0.5709030000000 1.0
C      1  0.4854720000000  0.4816070000000  0.4279330000000 1.0
C      1  0.4956020000000  0.4772120000000  0.5712870000000 1.0
C      1  0.5088280000000  0.4777420000000  0.4286450000000 1.0
C      1  0.5181350000000  0.4851100000000  0.5713030000000 1.0
C      1  0.5240070000000  0.4963110000000  0.4294990000000 1.0
C      1  0.5226000000000  0.5086290000000  0.5707890000000 1.0
C      1  0.5154060000000  0.5187860000000  0.4296560000000 1.0
C      1  0.5044800000000  0.5243950000000  0.5703180000000 1.0
C      1  0.4916430000000  0.5224800000000  0.4290100000000 1.0
C      1  0.4817660000000  0.5164650000000  0.5703310000000 1.0
C      1  0.4765620000000  0.5037560000000  0.4282240000000 1.0
C      1  0.4864170000000  0.5486400000000  0.5613290000000 1.0
C      1  0.4632260000000  0.5336520000000  0.4368690000000 1.0
C      1  0.4518540000000  0.5129700000000  0.5616700000000 1.0
C      1  0.4543980000000  0.4810620000000  0.4339100000000 1.0
C      1  0.4652570000000  0.4651440000000  0.5633020000000 1.0
C      1  0.4871460000000  0.4528520000000  0.4360730000000 1.0
C      1  0.5136290000000  0.4527190000000  0.5633200000000 1.0
C      1  0.5365900000000  0.4663180000000  0.4371330000000 1.0
C      1  0.5481620000000  0.4876780000000  0.5633560000000 1.0
C      1  0.5471540000000  0.5151760000000  0.4383450000000 1.0
C      1  0.5355720000000  0.5354890000000  0.5618410000000 1.0
C      1  0.5095980000000  0.5487360000000  0.4379570000000 1.0
C      1  0.5039590000000  0.4639460000000  0.3865550000000 1.0
C      1  0.5204500000000  0.4695370000000  0.6125460000000 1.0
C      1  0.5340550000000  0.4861960000000  0.3869880000000 1.0
C      1  0.5367880000000  0.5032740000000  0.6125690000000 1.0
C      1  0.5294370000000  0.5233650000000  0.3872640000000 1.0
C      1  0.5160540000000  0.5342750000000  0.6124340000000 1.0
C      1  0.4949180000000  0.5378520000000  0.3875770000000 1.0
C      1  0.4788230000000  0.5312350000000  0.6123750000000 1.0
C      1  0.4651060000000  0.5151220000000  0.3876960000000 1.0
C      1  0.4623640000000  0.4975980000000  0.6123540000000 1.0
C      1  0.4692390000000  0.4777530000000  0.3870060000000 1.0
C      1  0.4831550000000  0.4664380000000  0.6121510000000 1.0
C      1  0.4881200000000  0.5098110000000  0.4488220000000 1.0
C      1  0.4851450000000  0.5036860000000  0.5505140000000 1.0
C      1  0.4851370000000  0.4947660000000  0.4484220000000 1.0
C      1  0.4898260000000  0.4890300000000  0.5508450000000 1.0
C      1  0.4966860000000  0.4846440000000  0.4486920000000 1.0
C      1  0.5048230000000  0.4857230000000  0.5509330000000 1.0
C      1  0.5112370000000  0.4895600000000  0.4491110000000 1.0
C      1  0.5152320000000  0.4970510000000  0.5507990000000 1.0
C      1  0.5143160000000  0.5046320000000  0.4495790000000 1.0
C      1  0.5106260000000  0.5117700000000  0.5505210000000 1.0
C      1  0.5027080000000  0.5147320000000  0.4493370000000 1.0
C      1  0.4955360000000  0.5150710000000  0.5503880000000 1.0
C      1  0.4642110000000  0.5644870000000  0.4805650000000 1.0
C      1  0.4387820000000  0.5436300000000  0.5201270000000 1.0
C      1  0.4256930000000  0.5012490000000  0.4803300000000 1.0
C      1  0.4325090000000  0.4678270000000  0.5198770000000 1.0
C      1  0.4616830000000  0.4359820000000  0.4789070000000 1.0
C      1  0.4945860000000  0.4240520000000  0.5181550000000 1.0
C      1  0.5341250000000  0.4325540000000  0.4788810000000 1.0
C      1  0.5617330000000  0.4593920000000  0.5211260000000 1.0
C      1  0.5722080000000  0.4981080000000  0.4798460000000 1.0
C      1  0.5700980000000  0.5346400000000  0.5203440000000 1.0
C      1  0.5390470000000  0.5631500000000  0.4820370000000 1.0
C      1  0.5078640000000  0.5738110000000  0.5201120000000 1.0
C      1  0.4671090000000  0.4670320000000  0.3929760000000 1.0
C      1  0.4863690000000  0.4561510000000  0.6058210000000 1.0
C      1  0.5121520000000  0.4567180000000  0.3925990000000 1.0
C      1  0.5311820000000  0.4670780000000  0.6066520000000 1.0
C      1  0.5442030000000  0.4898600000000  0.3933080000000 1.0
C      1  0.5444900000000  0.5110880000000  0.6065380000000 1.0
C      1  0.5314120000000  0.5337670000000  0.3938980000000 1.0
C      1  0.5129220000000  0.5447180000000  0.6062890000000 1.0
C      1  0.4864910000000  0.5447990000000  0.3936390000000 1.0
C      1  0.4683310000000  0.5335780000000  0.6059770000000 1.0
C      1  0.4551000000000  0.5115420000000  0.3943740000000 1.0
C      1  0.4548840000000  0.4898530000000  0.6060340000000 1.0
C      1  0.4268100000000  0.4734610000000  0.5436620000000 1.0
C      1  0.4528980000000  0.4362340000000  0.4549700000000 1.0
C      1  0.4878120000000  0.4257230000000  0.5423430000000 1.0
C      1  0.5305590000000  0.4276900000000  0.4539630000000 1.0
C      1  0.5607900000000  0.4516570000000  0.5449760000000 1.0
C      1  0.5754930000000  0.4903090000000  0.4561840000000 1.0
C      1  0.5718970000000  0.5266710000000  0.5437780000000 1.0
C      1  0.5444420000000  0.5625160000000  0.4568810000000 1.0
C      1  0.5139170000000  0.5737120000000  0.5433900000000 1.0
C      1  0.4686240000000  0.5706800000000  0.4564220000000 1.0
C      1  0.4409400000000  0.5513880000000  0.5436120000000 1.0
C      1  0.4217830000000  0.5083110000000  0.4563980000000 1.0
C      1  0.4515570000000  0.4407620000000  0.5153800000000 1.0
C      1  0.4913350000000  0.4199670000000  0.4802120000000 1.0
C      1  0.5280290000000  0.4284000000000  0.5174410000000 1.0
C      1  0.5616660000000  0.4521220000000  0.4840640000000 1.0
C      1  0.5765970000000  0.4886970000000  0.5157230000000 1.0
C      1  0.5709740000000  0.5315520000000  0.4820790000000 1.0
C      1  0.5520420000000  0.5594680000000  0.5183390000000 1.0
C      1  0.5088290000000  0.5763600000000  0.4841350000000 1.0
C      1  0.4747970000000  0.5727850000000  0.5166910000000 1.0
C      1  0.4366840000000  0.5461060000000  0.4834970000000 1.0
C      1  0.4248410000000  0.5132310000000  0.5164390000000 1.0
C      1  0.4281860000000  0.4677670000000  0.4827290000000 1.0
C      1  0.6063110000000  0.4633230000000  0.4903530000000 1.0
C      1  0.6076600000000  0.5150590000000  0.5057720000000 1.0
C      1  0.5875400000000  0.5681980000000  0.4922010000000 1.0
C      1  0.5382350000000  0.6031560000000  0.5108810000000 1.0
C      1  0.4775660000000  0.6099260000000  0.4915960000000 1.0
C      1  0.4320670000000  0.5862300000000  0.5077200000000 1.0
C      1  0.3933520000000  0.5354450000000  0.4912580000000 1.0
C      1  0.3920410000000  0.4838730000000  0.5080710000000 1.0
C      1  0.4149310000000  0.4245740000000  0.4914680000000 1.0
C      1  0.4594670000000  0.3984930000000  0.5069420000000 1.0
C      1  0.5168690000000  0.3901880000000  0.4928220000000 1.0
C      1  0.5739110000000  0.4150530000000  0.5118790000000 1.0
C      1  0.4439440000000  0.5039950000000  0.4143330000000 1.0
C      1  0.4461850000000  0.4770490000000  0.5877230000000 1.0
C      1  0.4646770000000  0.4501220000000  0.4107230000000 1.0
C      1  0.4932940000000  0.4420050000000  0.5874950000000 1.0
C      1  0.5253000000000  0.4489120000000  0.4108800000000 1.0
C      1  0.5471080000000  0.4660700000000  0.5886930000000 1.0
C      1  0.5573290000000  0.4971120000000  0.4120940000000 1.0
C      1  0.5528820000000  0.5231010000000  0.5879050000000 1.0
C      1  0.5313030000000  0.5487130000000  0.4125820000000 1.0
C      1  0.5055130000000  0.5573960000000  0.5876590000000 1.0
C      1  0.4731580000000  0.5531180000000  0.4118950000000 1.0
C      1  0.4532460000000  0.5343720000000  0.5872420000000 1.0
C      1  0.4568170000000  0.5633860000000  0.4225880000000 1.0
C      1  0.4340620000000  0.5372200000000  0.5766940000000 1.0
C      1  0.4253320000000  0.4936400000000  0.4233000000000 1.0
C      1  0.4348830000000  0.4613310000000  0.5771440000000 1.0
C      1  0.4692640000000  0.4312510000000  0.4224020000000 1.0
C      1  0.5020200000000  0.4247630000000  0.5773620000000 1.0
C      1  0.5416460000000  0.4379530000000  0.4208870000000 1.0
C      1  0.5667100000000  0.4641200000000  0.5785720000000 1.0
C      1  0.5748470000000  0.5053340000000  0.4227740000000 1.0
C      1  0.5644650000000  0.5392860000000  0.5788290000000 1.0
C      1  0.5319760000000  0.5681570000000  0.4228580000000 1.0
C      1  0.4985470000000  0.5752780000000  0.5770260000000 1.0
C      1  0.5360180000000  0.5221870000000  0.4712090000000 1.0
C      1  0.5213850000000  0.5382220000000  0.5295500000000 1.0
C      1  0.4976380000000  0.5430110000000  0.4701380000000 1.0
C      1  0.4774760000000  0.5368720000000  0.5291600000000 1.0
C      1  0.4604440000000  0.5206080000000  0.4686450000000 1.0
C      1  0.4569510000000  0.4982400000000  0.5297270000000 1.0
C      1  0.4611970000000  0.4762040000000  0.4672410000000 1.0
C      1  0.4786700000000  0.4606370000000  0.5323770000000 1.0
C      1  0.5002470000000  0.4554160000000  0.4685730000000 1.0
C      1  0.5224570000000  0.4626650000000  0.5305850000000 1.0
C      1  0.5373150000000  0.4781420000000  0.4701400000000 1.0
C      1  0.5452000000000  0.5014730000000  0.5321060000000 1.0
C      1  0.4772620000000  0.5055640000000  0.5377700000000 1.0
C      1  0.4764760000000  0.4924040000000  0.4605880000000 1.0
C      1  0.4840270000000  0.4826960000000  0.5383270000000 1.0
C      1  0.4940040000000  0.4762640000000  0.4611670000000 1.0
C      1  0.5068490000000  0.4773400000000  0.5384230000000 1.0
C      1  0.5165420000000  0.4831770000000  0.4617310000000 1.0
C      1  0.5235510000000  0.4946530000000  0.5382990000000 1.0
C      1  0.5220500000000  0.5063160000000  0.4625090000000 1.0
C      1  0.5168210000000  0.5172450000000  0.5378350000000 1.0
C      1  0.5046690000000  0.5225010000000  0.4621280000000 1.0
C      1  0.4935750000000  0.5228170000000  0.5375910000000 1.0
C      1  0.4819200000000  0.5155460000000  0.4613430000000 1.0
C      1  0.5030520000000  0.4012490000000  0.5201800000000 1.0
C      1  0.5523820000000  0.4180300000000  0.4747950000000 1.0
C      1  0.5842770000000  0.4553250000000  0.5276190000000 1.0
C      1  0.5949560000000  0.5039150000000  0.4770030000000 1.0
C      1  0.5879780000000  0.5519190000000  0.5205260000000 1.0
C      1  0.5455250000000  0.5855360000000  0.4828580000000 1.0
C      1  0.5028400000000  0.5951430000000  0.5277620000000 1.0
C      1  0.4472290000000  0.5808420000000  0.4785130000000 1.0
C      1  0.4164530000000  0.5469350000000  0.5279050000000 1.0
C      1  0.4031290000000  0.4942740000000  0.4786680000000 1.0
C      1  0.4184170000000  0.4502160000000  0.5275530000000 1.0
C      1  0.4553810000000  0.4131690000000  0.4776800000000 1.0
C      1  0.4292320000000  0.5049030000000  0.4318440000000 1.0
C      1  0.4345820000000  0.4727640000000  0.5682240000000 1.0
C      1  0.4594930000000  0.4391260000000  0.4301260000000 1.0
C      1  0.4923000000000  0.4300260000000  0.5675650000000 1.0
C      1  0.5302560000000  0.4365630000000  0.4297940000000 1.0
C      1  0.5572050000000  0.4577310000000  0.5696390000000 1.0
C      1  0.5700050000000  0.4948060000000  0.4314780000000 1.0
C      1  0.5653170000000  0.5284300000000  0.5688110000000 1.0
C      1  0.5385140000000  0.5590170000000  0.4320680000000 1.0
C      1  0.5084530000000  0.5694380000000  0.5680290000000 1.0
C      1  0.4682490000000  0.5644270000000  0.4314930000000 1.0
C      1  0.4438700000000  0.5431830000000  0.5678880000000 1.0
C      1  0.5613250000000  0.4218380000000  0.4166770000000 1.0
C      1  0.5917280000000  0.4592590000000  0.5821320000000 1.0
C      1  0.5987600000000  0.5141780000000  0.4192430000000 1.0
C      1  0.5832270000000  0.5521430000000  0.5911530000000 1.0
C      1  0.5362110000000  0.5932710000000  0.4188610000000 1.0
C      1  0.4926650000000  0.6000720000000  0.5809840000000 1.0
C      1  0.4369710000000  0.5794620000000  0.4194200000000 1.0
C      1  0.4093930000000  0.5436210000000  0.5805490000000 1.0
C      1  0.4015820000000  0.4844370000000  0.4187410000000 1.0
C      1  0.4176990000000  0.4424210000000  0.5802140000000 1.0
C      1  0.4833360000000  0.4139230000000  0.4341500000000 1.0
C      1  0.5094070000000  0.4004570000000  0.5815540000000 1.0
C      1  0.4419720000000  0.5261910000000  0.5830120000000 1.0
C      1  0.4380990000000  0.4899690000000  0.4168110000000 1.0
C      1  0.4480760000000  0.4631290000000  0.5838310000000 1.0
C      1  0.4762560000000  0.4420490000000  0.4148090000000 1.0
C      1  0.5066050000000  0.4371910000000  0.5840430000000 1.0
C      1  0.5390590000000  0.4513030000000  0.4149190000000 1.0
C      1  0.5581750000000  0.4746090000000  0.5846550000000 1.0
C      1  0.5621460000000  0.5100980000000  0.4165190000000 1.0
C      1  0.5508050000000  0.5369430000000  0.5838180000000 1.0
C      1  0.5219790000000  0.5591830000000  0.4164640000000 1.0
C      1  0.4928960000000  0.5631530000000  0.5833730000000 1.0
C      1  0.4594320000000  0.5502970000000  0.4159920000000 1.0
C      1  0.4851460000000  0.4950070000000  0.4722310000000 1.0
C      1  0.4905350000000  0.4893470000000  0.5270350000000 1.0
C      1  0.4956360000000  0.4851650000000  0.4725300000000 1.0
C      1  0.5044640000000  0.4861360000000  0.5271440000000 1.0
C      1  0.5093470000000  0.4893760000000  0.4728290000000 1.0
C      1  0.5144680000000  0.4964980000000  0.5270090000000 1.0
C      1  0.5127480000000  0.5033240000000  0.4733030000000 1.0
C      1  0.5103810000000  0.5102460000000  0.5267820000000 1.0
C      1  0.5022440000000  0.5131030000000  0.4730050000000 1.0
C      1  0.4963850000000  0.5135150000000  0.5267110000000 1.0
C      1  0.4885190000000  0.5089420000000  0.4725510000000 1.0
C      1  0.4865430000000  0.5031050000000  0.5268430000000 1.0
C      1  0.4972800000000  0.4870670000000  0.5811090000000 1.0
C      1  0.5057480000000  0.4871070000000  0.4186920000000 1.0
C      1  0.5106340000000  0.4917320000000  0.5810810000000 1.0
C      1  0.5146230000000  0.4981150000000  0.4192880000000 1.0
C      1  0.5132650000000  0.5056730000000  0.5807550000000 1.0
C      1  0.5095690000000  0.5113600000000  0.4193450000000 1.0
C      1  0.5025590000000  0.5149480000000  0.5804480000000 1.0
C      1  0.4955430000000  0.5135720000000  0.4189530000000 1.0
C      1  0.4891950000000  0.5102900000000  0.5804390000000 1.0
C      1  0.4866400000000  0.5025780000000  0.4184420000000 1.0
C      1  0.4865640000000  0.4963880000000  0.5808320000000 1.0
C      1  0.4917800000000  0.4893750000000  0.4181640000000 1.0
C      1  0.4279850000000  0.5782880000000  0.4985410000000 1.0
C      1  0.3985380000000  0.5319390000000  0.5027820000000 1.0
C      1  0.3966670000000  0.4764320000000  0.4987690000000 1.0
C      1  0.4210870000000  0.4273890000000  0.5027480000000 1.0
C      1  0.4680990000000  0.3985370000000  0.4975520000000 1.0
C      1  0.5226070000000  0.3962170000000  0.5024390000000 1.0
C      1  0.5724710000000  0.4214830000000  0.5004930000000 1.0
C      1  0.6018100000000  0.4675140000000  0.5020010000000 1.0
C      1  0.6028750000000  0.5224390000000  0.4964470000000 1.0
C      1  0.5813390000000  0.5709160000000  0.5029770000000 1.0
C      1  0.5283790000000  0.6013460000000  0.5026510000000 1.0
C      1  0.4769600000000  0.6039220000000  0.5031940000000 1.0
C      1  0.4250500000000  0.4525920000000  0.5793510000000 1.0
C      1  0.4752350000000  0.4199800000000  0.4268380000000 1.0
C      1  0.5047070000000  0.4120810000000  0.5806610000000 1.0
C      1  0.5508890000000  0.4286810000000  0.4182450000000 1.0
C      1  0.5792370000000  0.4603210000000  0.5810680000000 1.0
C      1  0.5875920000000  0.5085270000000  0.4204250000000 1.0
C      1  0.5739510000000  0.5462960000000  0.5850460000000 1.0
C      1  0.5354700000000  0.5807990000000  0.4203210000000 1.0
C      1  0.4967410000000  0.5882340000000  0.5798080000000 1.0
C      1  0.4475230000000  0.5726690000000  0.4203590000000 1.0
C      1  0.4217600000000  0.5418010000000  0.5792090000000 1.0
C      1  0.4128760000000  0.4896220000000  0.4209780000000 1.0
C      1  0.4711760000000  0.5346320000000  0.5184180000000 1.0
C      1  0.4568220000000  0.5154680000000  0.4796350000000 1.0
C      1  0.4558450000000  0.4916720000000  0.5189730000000 1.0
C      1  0.4640740000000  0.4703390000000  0.4781320000000 1.0
C      1  0.4845630000000  0.4557680000000  0.5222240000000 1.0
C      1  0.5064120000000  0.4534610000000  0.4793980000000 1.0
C      1  0.5282670000000  0.4644620000000  0.5195100000000 1.0
C      1  0.5411060000000  0.4836830000000  0.4808620000000 1.0
C      1  0.5468780000000  0.5097620000000  0.5226630000000 1.0
C      1  0.5342090000000  0.5284150000000  0.4820250000000 1.0
C      1  0.5173270000000  0.5419270000000  0.5181540000000 1.0
C      1  0.4912130000000  0.5437090000000  0.4809550000000 1.0
C      1  0.4813340000000  0.5481340000000  0.4882800000000 1.0
C      1  0.4603460000000  0.5349610000000  0.5110270000000 1.0
C      1  0.4481570000000  0.5089820000000  0.4868330000000 1.0
C      1  0.4503640000000  0.4827730000000  0.5110350000000 1.0
C      1  0.4666980000000  0.4596110000000  0.4850110000000 1.0
C      1  0.4891620000000  0.4464820000000  0.5146550000000 1.0
C      1  0.5160210000000  0.4479310000000  0.4864210000000 1.0
C      1  0.5390000000000  0.4640820000000  0.5119550000000 1.0
C      1  0.5494660000000  0.4913450000000  0.4872630000000 1.0
C      1  0.5516270000000  0.5196650000000  0.5158920000000 1.0
C      1  0.5338070000000  0.5396170000000  0.4888030000000 1.0
C      1  0.5119170000000  0.5512380000000  0.5106380000000 1.0
END
