TITL C-855863-9781-143 131.522051128802 1000000 -2356.81798714516 0 0 320 (C1) n - 1
REM
REM in /scratch/bkarasulu/Larger-Clusters
REM
REM
REM
REM
REM
REM ./C.cell (28d0ae7d613b82ecca3ae8fabf5dfced)
REM
REM compiler GCC version 9.2.1 20190827 (Red Hat 9.2.1-1)
REM options -cpp -mtune=generic -march=x86-64 -g -O0 -fpre-include=/usr/include/finclude/math-vector-fortran.h
REM seed -881453416 218470527 473503131 1658136484 1816144588 -707010393 -1654670039 -716783394 334788433 -1916009186 -1716012644 1730426743 -155183468 589278165 -383948676 -1814517696 -886311430 -687459256 495273072 1967411455 -1213928307 -1969679066 -932600868 -1427264967 1646120746 1924228144 1584321339 564676049 598266841 -394359219 1298925901 1473173759 1215616115
REM
CELL 1.54180  100.00000  100.00000  100.00000   90.00000   90.00000   90.00000
LATT -1
SFAC C  
C      1  0.5300080000000  0.4596300000000  0.4357950000000 1.0
C      1  0.4337840000000  0.5282970000000  0.4593560000000 1.0
C      1  0.4545340000000  0.4319170000000  0.5284030000000 1.0
C      1  0.5273550000000  0.5391030000000  0.5629440000000 1.0
C      1  0.4710040000000  0.5424680000000  0.4310290000000 1.0
C      1  0.4701300000000  0.4605670000000  0.5642720000000 1.0
C      1  0.4312660000000  0.4726280000000  0.5380340000000 1.0
C      1  0.5677460000000  0.4721430000000  0.4637190000000 1.0
C      1  0.5649230000000  0.5289240000000  0.5340920000000 1.0
C      1  0.4608280000000  0.5668010000000  0.4710680000000 1.0
C      1  0.5389490000000  0.5699370000000  0.5268010000000 1.0
C      1  0.5452410000000  0.4301180000000  0.4708510000000 1.0
C      1  0.4746940000000  0.4600000000000  0.4379560000000 1.0
C      1  0.5638550000000  0.5285470000000  0.4644520000000 1.0
C      1  0.5395400000000  0.4328060000000  0.5231380000000 1.0
C      1  0.4711320000000  0.5391290000000  0.5651310000000 1.0
C      1  0.5249570000000  0.5381800000000  0.4364410000000 1.0
C      1  0.5262890000000  0.4615900000000  0.5609340000000 1.0
C      1  0.5653040000000  0.4726170000000  0.5334850000000 1.0
C      1  0.4336580000000  0.4723380000000  0.4606610000000 1.0
C      1  0.4328290000000  0.5290530000000  0.5376150000000 1.0
C      1  0.5384860000000  0.5698280000000  0.4715990000000 1.0
C      1  0.4603670000000  0.5671150000000  0.5274480000000 1.0
C      1  0.4600230000000  0.4335110000000  0.4757090000000 1.0
C      1  0.4425830000000  0.4397150000000  0.5274010000000 1.0
C      1  0.5290720000000  0.4476940000000  0.4438250000000 1.0
C      1  0.4429180000000  0.5268060000000  0.4483170000000 1.0
C      1  0.4483720000000  0.5596060000000  0.4721130000000 1.0
C      1  0.5509870000000  0.5620870000000  0.5253030000000 1.0
C      1  0.5573570000000  0.4377160000000  0.4718850000000 1.0
C      1  0.5260190000000  0.5518210000000  0.5563060000000 1.0
C      1  0.4720000000000  0.5545890000000  0.4384990000000 1.0
C      1  0.4710910000000  0.4492390000000  0.5554670000000 1.0
C      1  0.4385370000000  0.4736420000000  0.5504820000000 1.0
C      1  0.5601000000000  0.4733620000000  0.4515040000000 1.0
C      1  0.5574320000000  0.5271720000000  0.5462390000000 1.0
C      1  0.5520360000000  0.4399940000000  0.5233210000000 1.0
C      1  0.4754790000000  0.4481830000000  0.4461650000000 1.0
C      1  0.5558770000000  0.5265440000000  0.4526370000000 1.0
C      1  0.5504190000000  0.5618390000000  0.4730210000000 1.0
C      1  0.4477380000000  0.5602380000000  0.5261860000000 1.0
C      1  0.4479300000000  0.4414460000000  0.4753070000000 1.0
C      1  0.4722150000000  0.5518510000000  0.5583670000000 1.0
C      1  0.5247800000000  0.5513940000000  0.4425490000000 1.0
C      1  0.5244490000000  0.4504510000000  0.5518010000000 1.0
C      1  0.5573410000000  0.4739780000000  0.5454130000000 1.0
C      1  0.4430560000000  0.4734020000000  0.4498450000000 1.0
C      1  0.4397520000000  0.5277700000000  0.5502390000000 1.0
C      1  0.5387670000000  0.4436090000000  0.4526400000000 1.0
C      1  0.4523280000000  0.5361010000000  0.4442850000000 1.0
C      1  0.4402610000000  0.4507820000000  0.5354220000000 1.0
C      1  0.5345700000000  0.5563470000000  0.5462350000000 1.0
C      1  0.4639590000000  0.5570060000000  0.4495510000000 1.0
C      1  0.4612100000000  0.4451550000000  0.5468170000000 1.0
C      1  0.4485690000000  0.4646250000000  0.5541700000000 1.0
C      1  0.5509530000000  0.4639300000000  0.4468820000000 1.0
C      1  0.5476540000000  0.5358960000000  0.5509020000000 1.0
C      1  0.4448240000000  0.5492980000000  0.4633870000000 1.0
C      1  0.5542520000000  0.5507180000000  0.5327830000000 1.0
C      1  0.5594070000000  0.4494410000000  0.4646220000000 1.0
C      1  0.4661820000000  0.4449940000000  0.4558010000000 1.0
C      1  0.5456560000000  0.5349400000000  0.4483420000000 1.0
C      1  0.5546310000000  0.4512320000000  0.5309760000000 1.0
C      1  0.4634000000000  0.5560380000000  0.5484330000000 1.0
C      1  0.5333550000000  0.5557420000000  0.4526550000000 1.0
C      1  0.5333930000000  0.4463390000000  0.5420370000000 1.0
C      1  0.5470160000000  0.4653940000000  0.5491950000000 1.0
C      1  0.4534130000000  0.4644660000000  0.4474340000000 1.0
C      1  0.4499370000000  0.5363350000000  0.5542870000000 1.0
C      1  0.5532370000000  0.5502120000000  0.4657960000000 1.0
C      1  0.4437100000000  0.5501180000000  0.5348330000000 1.0
C      1  0.4451770000000  0.4518720000000  0.4664750000000 1.0
C      1  0.4193120000000  0.5325870000000  0.5116290000000 1.0
C      1  0.5130540000000  0.4196880000000  0.5242060000000 1.0
C      1  0.5305470000000  0.5130180000000  0.4226280000000 1.0
C      1  0.4200050000000  0.4709270000000  0.4847090000000 1.0
C      1  0.5840070000000  0.4653710000000  0.5135020000000 1.0
C      1  0.5819340000000  0.5367460000000  0.4847590000000 1.0
C      1  0.5131950000000  0.5807830000000  0.4694780000000 1.0
C      1  0.4857680000000  0.5811430000000  0.5311690000000 1.0
C      1  0.4861440000000  0.4189770000000  0.4750890000000 1.0
C      1  0.5335250000000  0.4847710000000  0.5777100000000 1.0
C      1  0.4724130000000  0.4838950000000  0.4221030000000 1.0
C      1  0.4672400000000  0.5131670000000  0.5787360000000 1.0
C      1  0.5822610000000  0.5368420000000  0.5131170000000 1.0
C      1  0.4793070000000  0.4219470000000  0.5226190000000 1.0
C      1  0.4788140000000  0.5166500000000  0.4258540000000 1.0
C      1  0.5854120000000  0.4655110000000  0.4851410000000 1.0
C      1  0.4170560000000  0.4694090000000  0.5121690000000 1.0
C      1  0.4212730000000  0.5305290000000  0.4840840000000 1.0
C      1  0.4858430000000  0.5817060000000  0.4675700000000 1.0
C      1  0.5132380000000  0.5802860000000  0.5289230000000 1.0
C      1  0.5202000000000  0.4204590000000  0.4765300000000 1.0
C      1  0.4681880000000  0.4851850000000  0.5769490000000 1.0
C      1  0.5343490000000  0.4834960000000  0.4203660000000 1.0
C      1  0.5317340000000  0.5146730000000  0.5767100000000 1.0
C      1  0.4942800000000  0.4895480000000  0.4574690000000 1.0
C      1  0.4134080000000  0.5081780000000  0.4826730000000 1.0
C      1  0.4940070000000  0.4167760000000  0.4972110000000 1.0
C      1  0.5059820000000  0.5102730000000  0.5634030000000 1.0
C      1  0.4909400000000  0.5292980000000  0.4588120000000 1.0
C      1  0.4900940000000  0.4835730000000  0.5841530000000 1.0
C      1  0.4343910000000  0.4938700000000  0.5088400000000 1.0
C      1  0.5753330000000  0.4878620000000  0.4927960000000 1.0
C      1  0.5740400000000  0.5138550000000  0.5053150000000 1.0
C      1  0.4898330000000  0.5654130000000  0.4927030000000 1.0
C      1  0.5142070000000  0.5885090000000  0.5066160000000 1.0
C      1  0.5051060000000  0.4167750000000  0.5021620000000 1.0
C      1  0.4951970000000  0.4818330000000  0.4476050000000 1.0
C      1  0.5739410000000  0.5137510000000  0.4928520000000 1.0
C      1  0.5163070000000  0.4185470000000  0.5098920000000 1.0
C      1  0.4926160000000  0.5103880000000  0.5636450000000 1.0
C      1  0.4986040000000  0.5271240000000  0.4492100000000 1.0
C      1  0.5042900000000  0.4840220000000  0.5842140000000 1.0
C      1  0.5749800000000  0.4880060000000  0.5052650000000 1.0
C      1  0.4130880000000  0.4935310000000  0.4828340000000 1.0
C      1  0.4346580000000  0.5071330000000  0.5086660000000 1.0
C      1  0.5142260000000  0.5886460000000  0.4919140000000 1.0
C      1  0.4897340000000  0.5653500000000  0.5059700000000 1.0
C      1  0.4828520000000  0.4186130000000  0.4894040000000 1.0
C      1  0.4972470000000  0.4105560000000  0.4719800000000 1.0
C      1  0.4802850000000  0.4928560000000  0.4176960000000 1.0
C      1  0.4130560000000  0.4812700000000  0.4901230000000 1.0
C      1  0.4941670000000  0.5876040000000  0.5247540000000 1.0
C      1  0.5072150000000  0.5877380000000  0.4795330000000 1.0
C      1  0.5018640000000  0.4116190000000  0.5278560000000 1.0
C      1  0.4732370000000  0.5043910000000  0.5850710000000 1.0
C      1  0.5263970000000  0.5048840000000  0.4140540000000 1.0
C      1  0.5288560000000  0.4934810000000  0.5854450000000 1.0
C      1  0.4133400000000  0.5262650000000  0.5028090000000 1.0
C      1  0.5921280000000  0.5346500000000  0.4921330000000 1.0
C      1  0.5941280000000  0.4680880000000  0.5063010000000 1.0
C      1  0.5089200000000  0.4127590000000  0.4752580000000 1.0
C      1  0.5282980000000  0.4916300000000  0.4129980000000 1.0
C      1  0.5952140000000  0.4683810000000  0.4928620000000 1.0
C      1  0.5071480000000  0.5872520000000  0.5189460000000 1.0
C      1  0.4940970000000  0.5882940000000  0.4740560000000 1.0
C      1  0.4902860000000  0.4139550000000  0.5242850000000 1.0
C      1  0.5277030000000  0.5067700000000  0.5857770000000 1.0
C      1  0.4827370000000  0.5049380000000  0.4206280000000 1.0
C      1  0.4779290000000  0.4909650000000  0.5842600000000 1.0
C      1  0.5923810000000  0.5346910000000  0.5056330000000 1.0
C      1  0.4140640000000  0.5205230000000  0.4897900000000 1.0
C      1  0.4115180000000  0.4759410000000  0.5032250000000 1.0
C      1  0.4880060000000  0.4626240000000  0.4334530000000 1.0
C      1  0.4266140000000  0.4853350000000  0.4609220000000 1.0
C      1  0.4599320000000  0.4266700000000  0.4885440000000 1.0
C      1  0.4845920000000  0.5358860000000  0.5697860000000 1.0
C      1  0.5116410000000  0.5363380000000  0.4306960000000 1.0
C      1  0.5135060000000  0.4628890000000  0.5683540000000 1.0
C      1  0.4281020000000  0.5157320000000  0.5341640000000 1.0
C      1  0.5697560000000  0.5156010000000  0.4679610000000 1.0
C      1  0.5706410000000  0.4858360000000  0.5301920000000 1.0
C      1  0.4639580000000  0.5715440000000  0.5140670000000 1.0
C      1  0.5376510000000  0.5777900000000  0.4841110000000 1.0
C      1  0.5395380000000  0.4253040000000  0.5106250000000 1.0
C      1  0.5163830000000  0.4622230000000  0.4310570000000 1.0
C      1  0.5717130000000  0.4857070000000  0.4676630000000 1.0
C      1  0.5429780000000  0.4235510000000  0.4831240000000 1.0
C      1  0.5144180000000  0.5359260000000  0.5686720000000 1.0
C      1  0.4838890000000  0.5400130000000  0.4258370000000 1.0
C      1  0.4835580000000  0.4618330000000  0.5700560000000 1.0
C      1  0.5702410000000  0.5157470000000  0.5303740000000 1.0
C      1  0.4269210000000  0.5153230000000  0.4603170000000 1.0
C      1  0.4273260000000  0.4861210000000  0.5344310000000 1.0
C      1  0.5378120000000  0.5777500000000  0.5142180000000 1.0
C      1  0.4641220000000  0.5713410000000  0.4844290000000 1.0
C      1  0.4566290000000  0.4254260000000  0.5160690000000 1.0
C      1  0.5404170000000  0.4824550000000  0.5660180000000 1.0
C      1  0.5706310000000  0.5442750000000  0.4826670000000 1.0
C      1  0.4817780000000  0.5711470000000  0.5400050000000 1.0
C      1  0.5384710000000  0.5164510000000  0.4332420000000 1.0
C      1  0.4583440000000  0.5175720000000  0.5689360000000 1.0
C      1  0.4630200000000  0.4814900000000  0.4316490000000 1.0
C      1  0.5729480000000  0.4573490000000  0.5151890000000 1.0
C      1  0.4281660000000  0.4605210000000  0.4829450000000 1.0
C      1  0.4290040000000  0.5415790000000  0.5160770000000 1.0
C      1  0.4837030000000  0.4294060000000  0.4656090000000 1.0
C      1  0.5157110000000  0.4306000000000  0.5331280000000 1.0
C      1  0.5155910000000  0.5721050000000  0.4595820000000 1.0
C      1  0.4580800000000  0.4830010000000  0.5686230000000 1.0
C      1  0.4295880000000  0.5406660000000  0.4817000000000 1.0
C      1  0.5159760000000  0.5717380000000  0.5388080000000 1.0
C      1  0.4645490000000  0.5181440000000  0.4313740000000 1.0
C      1  0.5396870000000  0.5173770000000  0.5659210000000 1.0
C      1  0.5419700000000  0.4816060000000  0.4315960000000 1.0
C      1  0.4260620000000  0.4598700000000  0.5168620000000 1.0
C      1  0.5750410000000  0.4569420000000  0.4824560000000 1.0
C      1  0.5710310000000  0.5444230000000  0.5154190000000 1.0
C      1  0.5213810000000  0.4291910000000  0.4644700000000 1.0
C      1  0.4784180000000  0.4309790000000  0.5345100000000 1.0
C      1  0.4819980000000  0.5718950000000  0.4584340000000 1.0
C      1  0.5731930000000  0.5085530000000  0.4799390000000 1.0
C      1  0.4755250000000  0.5703630000000  0.5065270000000 1.0
C      1  0.5060300000000  0.4715670000000  0.5766430000000 1.0
C      1  0.5736210000000  0.4930830000000  0.5181880000000 1.0
C      1  0.4189380000000  0.4932940000000  0.4693180000000 1.0
C      1  0.4291910000000  0.5079870000000  0.5226980000000 1.0
C      1  0.4707720000000  0.4218370000000  0.4963920000000 1.0
C      1  0.5285400000000  0.4208760000000  0.5027850000000 1.0
C      1  0.5282430000000  0.5843230000000  0.4919510000000 1.0
C      1  0.5012370000000  0.5272390000000  0.4350970000000 1.0
C      1  0.4922910000000  0.5244000000000  0.5691200000000 1.0
C      1  0.4963280000000  0.4741630000000  0.4362400000000 1.0
C      1  0.4191610000000  0.5078470000000  0.4690870000000 1.0
C      1  0.5282670000000  0.5842450000000  0.5065160000000 1.0
C      1  0.4912790000000  0.4706780000000  0.5771990000000 1.0
C      1  0.4288260000000  0.4936010000000  0.5228410000000 1.0
C      1  0.5741100000000  0.4929320000000  0.4798280000000 1.0
C      1  0.5732340000000  0.5087060000000  0.5182640000000 1.0
C      1  0.5300880000000  0.4207040000000  0.4877790000000 1.0
C      1  0.4693660000000  0.4221340000000  0.5114020000000 1.0
C      1  0.4755910000000  0.5703450000000  0.4921170000000 1.0
C      1  0.4886930000000  0.5270600000000  0.4273650000000 1.0
C      1  0.5068130000000  0.5243950000000  0.5688540000000 1.0
C      1  0.5085170000000  0.4732840000000  0.4284650000000 1.0
C      1  0.4649670000000  0.4353240000000  0.5371190000000 1.0
C      1  0.5410930000000  0.4682520000000  0.4374820000000 1.0
C      1  0.4353150000000  0.5395600000000  0.4678770000000 1.0
C      1  0.4688620000000  0.5658680000000  0.4595730000000 1.0
C      1  0.5300550000000  0.5667540000000  0.5374530000000 1.0
C      1  0.5349020000000  0.4335900000000  0.4620860000000 1.0
C      1  0.5384430000000  0.5308520000000  0.5604770000000 1.0
C      1  0.4620040000000  0.5320490000000  0.4345250000000 1.0
C      1  0.4587940000000  0.4690810000000  0.5631090000000 1.0
C      1  0.4316680000000  0.4609340000000  0.5302650000000 1.0
C      1  0.5678680000000  0.4595220000000  0.4701040000000 1.0
C      1  0.5637560000000  0.5413890000000  0.5275430000000 1.0
C      1  0.5293010000000  0.4361490000000  0.5326380000000 1.0
C      1  0.4634710000000  0.4684740000000  0.4383080000000 1.0
C      1  0.5629040000000  0.5410290000000  0.4708950000000 1.0
C      1  0.5294090000000  0.5666370000000  0.4610850000000 1.0
C      1  0.4683490000000  0.5655460000000  0.5389200000000 1.0
C      1  0.4702010000000  0.4354340000000  0.4658500000000 1.0
C      1  0.4596430000000  0.5310900000000  0.5634940000000 1.0
C      1  0.5361310000000  0.5296870000000  0.4389700000000 1.0
C      1  0.5378350000000  0.4697030000000  0.5592420000000 1.0
C      1  0.5647020000000  0.4603280000000  0.5266730000000 1.0
C      1  0.4349400000000  0.4614110000000  0.4696850000000 1.0
C      1  0.4344020000000  0.5405140000000  0.5296400000000 1.0
C      1  0.4916220000000  0.4518410000000  0.5634650000000 1.0
C      1  0.5674490000000  0.4938010000000  0.4565780000000 1.0
C      1  0.4522920000000  0.5687970000000  0.4923480000000 1.0
C      1  0.4922180000000  0.5512240000000  0.4289470000000 1.0
C      1  0.5062450000000  0.5476790000000  0.5665050000000 1.0
C      1  0.5087770000000  0.4505210000000  0.4358240000000 1.0
C      1  0.5668080000000  0.5074170000000  0.5415930000000 1.0
C      1  0.4330900000000  0.5069280000000  0.4502510000000 1.0
C      1  0.4301470000000  0.4941370000000  0.5461480000000 1.0
C      1  0.4455240000000  0.4290050000000  0.5078510000000 1.0
C      1  0.5542680000000  0.4266070000000  0.4913020000000 1.0
C      1  0.5490670000000  0.5737650000000  0.5059900000000 1.0
C      1  0.5051480000000  0.4524550000000  0.5626230000000 1.0
C      1  0.4328410000000  0.4933180000000  0.4505780000000 1.0
C      1  0.5489880000000  0.5737700000000  0.4922120000000 1.0
C      1  0.5057130000000  0.5497090000000  0.4304150000000 1.0
C      1  0.4926380000000  0.5476480000000  0.5671180000000 1.0
C      1  0.4952950000000  0.4506880000000  0.4364560000000 1.0
C      1  0.4304030000000  0.5077060000000  0.5460220000000 1.0
C      1  0.5664210000000  0.5072840000000  0.4567730000000 1.0
C      1  0.5669150000000  0.4938690000000  0.5414820000000 1.0
C      1  0.5523580000000  0.4275960000000  0.5046950000000 1.0
C      1  0.4474150000000  0.4299780000000  0.4945000000000 1.0
C      1  0.4522270000000  0.5690310000000  0.5059220000000 1.0
C      1  0.4844280000000  0.4442420000000  0.5539190000000 1.0
C      1  0.5595720000000  0.4867640000000  0.4470860000000 1.0
C      1  0.4430760000000  0.5604850000000  0.4853640000000 1.0
C      1  0.4852440000000  0.5598890000000  0.4377710000000 1.0
C      1  0.5128510000000  0.5570530000000  0.5579980000000 1.0
C      1  0.5158460000000  0.4423420000000  0.4448290000000 1.0
C      1  0.5582370000000  0.5138570000000  0.5509130000000 1.0
C      1  0.4435650000000  0.5135180000000  0.4432390000000 1.0
C      1  0.4382590000000  0.4870490000000  0.5554420000000 1.0
C      1  0.4372850000000  0.4387100000000  0.5142760000000 1.0
C      1  0.5629250000000  0.4359770000000  0.4847960000000 1.0
C      1  0.5570640000000  0.5641290000000  0.5126340000000 1.0
C      1  0.5113120000000  0.4450700000000  0.5521440000000 1.0
C      1  0.4432570000000  0.4864540000000  0.4439380000000 1.0
C      1  0.5568280000000  0.5640470000000  0.4855130000000 1.0
C      1  0.5125130000000  0.5580800000000  0.4397940000000 1.0
C      1  0.4855240000000  0.5570150000000  0.5591340000000 1.0
C      1  0.4886270000000  0.4425780000000  0.4460180000000 1.0
C      1  0.4387350000000  0.5144630000000  0.5552980000000 1.0
C      1  0.5573120000000  0.5134140000000  0.4477800000000 1.0
C      1  0.5583350000000  0.4870470000000  0.5505620000000 1.0
C      1  0.5597650000000  0.4373430000000  0.5117950000000 1.0
C      1  0.4404950000000  0.4400280000000  0.4872580000000 1.0
C      1  0.4427880000000  0.5609980000000  0.5127910000000 1.0
C      1  0.5062050000000  0.5667190000000  0.4489680000000 1.0
C      1  0.4482070000000  0.5080690000000  0.5636070000000 1.0
C      1  0.5689480000000  0.4463490000000  0.5060610000000 1.0
C      1  0.5052670000000  0.4364310000000  0.5425040000000 1.0
C      1  0.4945090000000  0.4344280000000  0.4559520000000 1.0
C      1  0.4915150000000  0.5656520000000  0.5496840000000 1.0
C      1  0.4537580000000  0.4922200000000  0.4363780000000 1.0
C      1  0.5493700000000  0.4927510000000  0.5597820000000 1.0
C      1  0.5486110000000  0.5070660000000  0.4386930000000 1.0
C      1  0.5656290000000  0.5549570000000  0.4917170000000 1.0
C      1  0.4344980000000  0.5514260000000  0.5065000000000 1.0
C      1  0.4320210000000  0.4497930000000  0.4928390000000 1.0
C      1  0.4914010000000  0.5671770000000  0.4482070000000 1.0
C      1  0.5492770000000  0.5076480000000  0.5598840000000 1.0
C      1  0.4307210000000  0.4493160000000  0.5076530000000 1.0
C      1  0.4896560000000  0.4362080000000  0.5431840000000 1.0
C      1  0.5103270000000  0.4342720000000  0.4554770000000 1.0
C      1  0.5064320000000  0.5658540000000  0.5490850000000 1.0
C      1  0.5500780000000  0.4922190000000  0.4381040000000 1.0
C      1  0.4479930000000  0.4930710000000  0.5636470000000 1.0
C      1  0.4545000000000  0.5076520000000  0.4359820000000 1.0
C      1  0.4346200000000  0.5510660000000  0.4915240000000 1.0
C      1  0.5657850000000  0.5550110000000  0.5063610000000 1.0
C      1  0.5703730000000  0.4459230000000  0.4914400000000 1.0
C      1  0.5502840000000  0.4517300000000  0.4540150000000 1.0
C      1  0.4532190000000  0.5479700000000  0.4518820000000 1.0
C      1  0.4493580000000  0.4528690000000  0.5461800000000 1.0
C      1  0.4518050000000  0.5480350000000  0.5463950000000 1.0
C      1  0.5444120000000  0.5472620000000  0.4551950000000 1.0
C      1  0.5453040000000  0.4539090000000  0.5411590000000 1.0
C      1  0.5459060000000  0.5480720000000  0.5438540000000 1.0
C      1  0.4545630000000  0.4532760000000  0.4560380000000 1.0
END
