TITL C-855863-9781-352 -76.1552541060732 1000000 -4169.72685829409 0 0 600 (C2) n - 1
REM
REM in /scratch/bkarasulu/Larger-Clusters
REM
REM
REM
REM
REM
REM ./C.cell (28d0ae7d613b82ecca3ae8fabf5dfced)
REM
REM compiler GCC version 9.2.1 20190827 (Red Hat 9.2.1-1)
REM options -cpp -mtune=generic -march=x86-64 -g -O0 -fpre-include=/usr/include/finclude/math-vector-fortran.h
REM seed 1780323168 -1894951288 -574146750 -1002961343 -961711620 -1941275797 -1898076803 -57096216 1994645732 -1824898787 1536318594 93530500 -1705808645 652988268 -1380274695 1012617188 -1867972078 -765230550 -723748184 1851118747 -19017140 21474265 855800223 -15724182 -248099362 1491131777 -178777927 -1792977296 1279304478 222307733 -1101782324 1443582196 131684341
REM
CELL 1.54180  100.00000  100.00000  100.00000   90.00000   90.00000   90.00000
LATT -1
SFAC C  
C      1  0.5279730000000  0.5385350000000  0.4393640000000 1.0
C      1  0.5385100000000  0.4393590000000  0.5279810000000 1.0
C      1  0.4393860000000  0.5279770000000  0.5385200000000 1.0
C      1  0.4720320000000  0.4614670000000  0.4393590000000 1.0
C      1  0.5279650000000  0.4614630000000  0.5606390000000 1.0
C      1  0.4720300000000  0.5385360000000  0.5606380000000 1.0
C      1  0.4614880000000  0.5606380000000  0.5279780000000 1.0
C      1  0.5385180000000  0.5606380000000  0.4720220000000 1.0
C      1  0.4614870000000  0.4393650000000  0.4720180000000 1.0
C      1  0.5606100000000  0.4720220000000  0.5385230000000 1.0
C      1  0.4393870000000  0.4720270000000  0.4614740000000 1.0
C      1  0.5606150000000  0.5279740000000  0.4614820000000 1.0
C      1  0.5385140000000  0.5279800000000  0.4393700000000 1.0
C      1  0.4393870000000  0.5385260000000  0.5279710000000 1.0
C      1  0.5279670000000  0.4393560000000  0.5385340000000 1.0
C      1  0.4614890000000  0.4720210000000  0.4393630000000 1.0
C      1  0.4614860000000  0.5279820000000  0.5606330000000 1.0
C      1  0.5385070000000  0.4720180000000  0.5606340000000 1.0
C      1  0.5606110000000  0.4614710000000  0.5279760000000 1.0
C      1  0.5606170000000  0.5385240000000  0.4720290000000 1.0
C      1  0.4393870000000  0.4614780000000  0.4720230000000 1.0
C      1  0.4720310000000  0.5606430000000  0.5385320000000 1.0
C      1  0.4720300000000  0.4393600000000  0.4614640000000 1.0
C      1  0.5279740000000  0.5606420000000  0.4614700000000 1.0
C      1  0.5352880000000  0.4059310000000  0.5153870000000 1.0
C      1  0.4059450000000  0.5153870000000  0.5352890000000 1.0
C      1  0.5153880000000  0.5352930000000  0.4059320000000 1.0
C      1  0.4647110000000  0.5940680000000  0.5153800000000 1.0
C      1  0.5352950000000  0.5940670000000  0.4846160000000 1.0
C      1  0.4647070000000  0.4059340000000  0.4846170000000 1.0
C      1  0.5940520000000  0.4846140000000  0.5352960000000 1.0
C      1  0.4059460000000  0.4846190000000  0.4647040000000 1.0
C      1  0.5940560000000  0.5153800000000  0.4647110000000 1.0
C      1  0.4846190000000  0.4647030000000  0.4059310000000 1.0
C      1  0.5153790000000  0.4647060000000  0.5940700000000 1.0
C      1  0.4846140000000  0.5352980000000  0.5940670000000 1.0
C      1  0.4059460000000  0.5352960000000  0.5153790000000 1.0
C      1  0.5153790000000  0.4059290000000  0.5352970000000 1.0
C      1  0.5352950000000  0.5153800000000  0.4059370000000 1.0
C      1  0.5940530000000  0.4647040000000  0.5153880000000 1.0
C      1  0.5940570000000  0.5352900000000  0.4846190000000 1.0
C      1  0.4059450000000  0.4647100000000  0.4846140000000 1.0
C      1  0.4846180000000  0.5940720000000  0.5352920000000 1.0
C      1  0.4846150000000  0.4059290000000  0.4647060000000 1.0
C      1  0.5153880000000  0.5940690000000  0.4647040000000 1.0
C      1  0.4647120000000  0.4846160000000  0.4059330000000 1.0
C      1  0.4647060000000  0.5153860000000  0.5940640000000 1.0
C      1  0.5352870000000  0.4846170000000  0.5940660000000 1.0
C      1  0.5946320000000  0.4610780000000  0.5288300000000 1.0
C      1  0.4610790000000  0.5288280000000  0.5946500000000 1.0
C      1  0.5288310000000  0.5946560000000  0.4610790000000 1.0
C      1  0.4053660000000  0.5389230000000  0.5288210000000 1.0
C      1  0.5946370000000  0.5389160000000  0.4711770000000 1.0
C      1  0.4053660000000  0.4610830000000  0.4711710000000 1.0
C      1  0.5389140000000  0.4711760000000  0.5946510000000 1.0
C      1  0.4610840000000  0.4711740000000  0.4053470000000 1.0
C      1  0.5389230000000  0.5288220000000  0.4053520000000 1.0
C      1  0.4711720000000  0.4053440000000  0.4610810000000 1.0
C      1  0.5288220000000  0.4053420000000  0.5389230000000 1.0
C      1  0.4711750000000  0.5946580000000  0.5389170000000 1.0
C      1  0.4610830000000  0.5946550000000  0.5288220000000 1.0
C      1  0.5288220000000  0.4610810000000  0.5946550000000 1.0
C      1  0.5946360000000  0.5288220000000  0.4610840000000 1.0
C      1  0.5389150000000  0.4053440000000  0.5288290000000 1.0
C      1  0.5389230000000  0.5946530000000  0.4711750000000 1.0
C      1  0.4610800000000  0.4053480000000  0.4711750000000 1.0
C      1  0.4711710000000  0.5389230000000  0.5946530000000 1.0
C      1  0.4711760000000  0.4610790000000  0.4053440000000 1.0
C      1  0.5288310000000  0.5389170000000  0.4053470000000 1.0
C      1  0.4053660000000  0.4711770000000  0.4610780000000 1.0
C      1  0.4053650000000  0.5288290000000  0.5389150000000 1.0
C      1  0.5946310000000  0.4711720000000  0.5389230000000 1.0
C      1  0.4634090000000  0.5464610000000  0.5258640000000 1.0
C      1  0.5464340000000  0.5258650000000  0.4633920000000 1.0
C      1  0.5258370000000  0.4633730000000  0.5464620000000 1.0
C      1  0.5365900000000  0.4535360000000  0.5258640000000 1.0
C      1  0.4634080000000  0.4535430000000  0.4741320000000 1.0
C      1  0.5365960000000  0.5464610000000  0.4741400000000 1.0
C      1  0.4535680000000  0.4741380000000  0.4633830000000 1.0
C      1  0.5464290000000  0.4741320000000  0.5366120000000 1.0
C      1  0.4535670000000  0.5258660000000  0.5366120000000 1.0
C      1  0.4741590000000  0.5366240000000  0.5464630000000 1.0
C      1  0.5258440000000  0.5366250000000  0.4535400000000 1.0
C      1  0.4741600000000  0.4633790000000  0.4535340000000 1.0
C      1  0.5464310000000  0.4633790000000  0.5258610000000 1.0
C      1  0.5258450000000  0.5464670000000  0.4633830000000 1.0
C      1  0.4634070000000  0.5258680000000  0.5464560000000 1.0
C      1  0.4535670000000  0.5366180000000  0.5258600000000 1.0
C      1  0.4535670000000  0.4633860000000  0.4741350000000 1.0
C      1  0.5464360000000  0.5366180000000  0.4741430000000 1.0
C      1  0.4741590000000  0.4535360000000  0.4633760000000 1.0
C      1  0.4741590000000  0.5464670000000  0.5366210000000 1.0
C      1  0.5258380000000  0.4535310000000  0.5366200000000 1.0
C      1  0.5365880000000  0.4741290000000  0.5464550000000 1.0
C      1  0.5365930000000  0.5258680000000  0.4535480000000 1.0
C      1  0.4634090000000  0.4741360000000  0.4535400000000 1.0
C      1  0.5414480000000  0.5895250000000  0.5074160000000 1.0
C      1  0.5895150000000  0.5074140000000  0.5414510000000 1.0
C      1  0.5074130000000  0.5414550000000  0.5895260000000 1.0
C      1  0.4585520000000  0.4104770000000  0.5074160000000 1.0
C      1  0.5414430000000  0.4104720000000  0.4925880000000 1.0
C      1  0.4585580000000  0.5895250000000  0.4925810000000 1.0
C      1  0.4104810000000  0.4925870000000  0.5414460000000 1.0
C      1  0.5895180000000  0.4925800000000  0.4585560000000 1.0
C      1  0.4104850000000  0.5074180000000  0.4585470000000 1.0
C      1  0.4925800000000  0.4585490000000  0.5895280000000 1.0
C      1  0.5074170000000  0.4585450000000  0.4104750000000 1.0
C      1  0.4925890000000  0.5414510000000  0.4104720000000 1.0
C      1  0.5895180000000  0.5414480000000  0.5074190000000 1.0
C      1  0.5074170000000  0.5895290000000  0.5414510000000 1.0
C      1  0.5414420000000  0.5074160000000  0.5895240000000 1.0
C      1  0.4104820000000  0.4585540000000  0.5074140000000 1.0
C      1  0.4104850000000  0.5414520000000  0.4925800000000 1.0
C      1  0.5895160000000  0.4585470000000  0.4925880000000 1.0
C      1  0.4925800000000  0.4104730000000  0.5414540000000 1.0
C      1  0.4925890000000  0.5895270000000  0.4585460000000 1.0
C      1  0.5074140000000  0.4104710000000  0.4585500000000 1.0
C      1  0.4585510000000  0.4925870000000  0.5895230000000 1.0
C      1  0.4585580000000  0.5074160000000  0.4104740000000 1.0
C      1  0.5414480000000  0.4925810000000  0.4104790000000 1.0
C      1  0.5028000000000  0.5204450000000  0.5898800000000 1.0
C      1  0.5204400000000  0.5898800000000  0.5028010000000 1.0
C      1  0.5898680000000  0.5028010000000  0.5204430000000 1.0
C      1  0.4971930000000  0.4795580000000  0.5898810000000 1.0
C      1  0.5028060000000  0.4795550000000  0.4101200000000 1.0
C      1  0.4972000000000  0.5204420000000  0.4101190000000 1.0
C      1  0.4795600000000  0.4101210000000  0.5028030000000 1.0
C      1  0.5204350000000  0.4101190000000  0.4972000000000 1.0
C      1  0.4795660000000  0.5898800000000  0.4971950000000 1.0
C      1  0.4101300000000  0.4972000000000  0.5204370000000 1.0
C      1  0.5898700000000  0.4971930000000  0.4795640000000 1.0
C      1  0.4101310000000  0.5028060000000  0.4795560000000 1.0
C      1  0.5204340000000  0.5028040000000  0.5898780000000 1.0
C      1  0.5898700000000  0.5204390000000  0.5028070000000 1.0
C      1  0.5028050000000  0.5898830000000  0.5204410000000 1.0
C      1  0.4795590000000  0.4972000000000  0.5898780000000 1.0
C      1  0.4795660000000  0.5028010000000  0.4101200000000 1.0
C      1  0.5204400000000  0.4971950000000  0.4101230000000 1.0
C      1  0.4101300000000  0.4795620000000  0.5028000000000 1.0
C      1  0.4101310000000  0.5204430000000  0.4971930000000 1.0
C      1  0.5898690000000  0.4795560000000  0.4972000000000 1.0
C      1  0.4971940000000  0.4101190000000  0.5204450000000 1.0
C      1  0.4972010000000  0.5898810000000  0.4795550000000 1.0
C      1  0.5028010000000  0.4101170000000  0.4795590000000 1.0
C      1  0.4369360000000  0.4262160000000  0.5244110000000 1.0
C      1  0.4262220000000  0.5244140000000  0.4369290000000 1.0
C      1  0.5244140000000  0.4369300000000  0.4262160000000 1.0
C      1  0.5630630000000  0.5737860000000  0.5244140000000 1.0
C      1  0.4369420000000  0.5737880000000  0.4755840000000 1.0
C      1  0.5630600000000  0.4262100000000  0.4755910000000 1.0
C      1  0.5737820000000  0.4755840000000  0.4369370000000 1.0
C      1  0.4262160000000  0.4755910000000  0.5630650000000 1.0
C      1  0.5737780000000  0.5244110000000  0.5630690000000 1.0
C      1  0.4755910000000  0.5630670000000  0.4262120000000 1.0
C      1  0.5244120000000  0.5630690000000  0.5737850000000 1.0
C      1  0.4755820000000  0.4369340000000  0.5737860000000 1.0
C      1  0.4262170000000  0.4369350000000  0.5244110000000 1.0
C      1  0.5244140000000  0.4262110000000  0.4369360000000 1.0
C      1  0.4369420000000  0.5244130000000  0.4262100000000 1.0
C      1  0.5737820000000  0.5630670000000  0.5244150000000 1.0
C      1  0.5737800000000  0.4369290000000  0.4755910000000 1.0
C      1  0.4262230000000  0.5630690000000  0.4755830000000 1.0
C      1  0.4755920000000  0.5737860000000  0.4369310000000 1.0
C      1  0.4755820000000  0.4262150000000  0.5630670000000 1.0
C      1  0.5244130000000  0.5737870000000  0.5630660000000 1.0
C      1  0.5630630000000  0.4755840000000  0.4262170000000 1.0
C      1  0.5630590000000  0.5244120000000  0.5737880000000 1.0
C      1  0.4369350000000  0.4755910000000  0.5737850000000 1.0
C      1  0.4839010000000  0.5378500000000  0.4219100000000 1.0
C      1  0.5378420000000  0.4219090000000  0.4838970000000 1.0
C      1  0.4219170000000  0.4838950000000  0.5378470000000 1.0
C      1  0.5161040000000  0.4621470000000  0.4219140000000 1.0
C      1  0.4838930000000  0.4621510000000  0.5780890000000 1.0
C      1  0.5161010000000  0.5378520000000  0.5780870000000 1.0
C      1  0.4621600000000  0.5780890000000  0.4838910000000 1.0
C      1  0.5378460000000  0.5780890000000  0.5161060000000 1.0
C      1  0.4621540000000  0.4219130000000  0.5161060000000 1.0
C      1  0.5780800000000  0.5161070000000  0.5378510000000 1.0
C      1  0.4219200000000  0.5161100000000  0.4621470000000 1.0
C      1  0.5780820000000  0.4838880000000  0.4621550000000 1.0
C      1  0.5378460000000  0.4838900000000  0.4219150000000 1.0
C      1  0.4219210000000  0.5378520000000  0.4838880000000 1.0
C      1  0.4838940000000  0.4219120000000  0.5378510000000 1.0
C      1  0.4621590000000  0.5161060000000  0.4219100000000 1.0
C      1  0.4621530000000  0.4838960000000  0.5780870000000 1.0
C      1  0.5378410000000  0.5161070000000  0.5780880000000 1.0
C      1  0.5780810000000  0.4621470000000  0.4838960000000 1.0
C      1  0.5780820000000  0.5378480000000  0.5161100000000 1.0
C      1  0.4219170000000  0.4621530000000  0.5161060000000 1.0
C      1  0.5161040000000  0.5780900000000  0.5378490000000 1.0
C      1  0.5161020000000  0.4219090000000  0.4621520000000 1.0
C      1  0.4839020000000  0.5780880000000  0.4621480000000 1.0
C      1  0.5462080000000  0.5245430000000  0.4283250000000 1.0
C      1  0.5245430000000  0.4283090000000  0.5462270000000 1.0
C      1  0.4283360000000  0.5462140000000  0.5245390000000 1.0
C      1  0.4537950000000  0.4754540000000  0.4283180000000 1.0
C      1  0.5462010000000  0.4754540000000  0.5716790000000 1.0
C      1  0.4537910000000  0.5245490000000  0.5716780000000 1.0
C      1  0.4754550000000  0.5716920000000  0.5462220000000 1.0
C      1  0.5245510000000  0.5716890000000  0.4537760000000 1.0
C      1  0.4754540000000  0.4283100000000  0.4537750000000 1.0
C      1  0.5716630000000  0.4537850000000  0.5245460000000 1.0
C      1  0.4283350000000  0.4537920000000  0.4754550000000 1.0
C      1  0.5716680000000  0.5462110000000  0.4754590000000 1.0
C      1  0.5245490000000  0.5462230000000  0.4283130000000 1.0
C      1  0.4283350000000  0.5245460000000  0.5462070000000 1.0
C      1  0.5462060000000  0.4283150000000  0.5245500000000 1.0
C      1  0.4754550000000  0.4537750000000  0.4283110000000 1.0
C      1  0.4754530000000  0.5462270000000  0.5716870000000 1.0
C      1  0.5245410000000  0.4537750000000  0.5716890000000 1.0
C      1  0.5716600000000  0.4754560000000  0.5462110000000 1.0
C      1  0.5716660000000  0.5245400000000  0.4537950000000 1.0
C      1  0.4283360000000  0.4754590000000  0.4537870000000 1.0
C      1  0.4537940000000  0.5716830000000  0.5245440000000 1.0
C      1  0.4537930000000  0.4283200000000  0.4754530000000 1.0
C      1  0.5462130000000  0.5716830000000  0.4754540000000 1.0
C      1  0.4691380000000  0.5814020000000  0.4590430000000 1.0
C      1  0.5813960000000  0.4590400000000  0.4691330000000 1.0
C      1  0.4590460000000  0.4691330000000  0.5814010000000 1.0
C      1  0.5308660000000  0.4185960000000  0.4590480000000 1.0
C      1  0.4691300000000  0.4186000000000  0.5409550000000 1.0
C      1  0.5308670000000  0.5814030000000  0.5409540000000 1.0
C      1  0.4186070000000  0.5409580000000  0.4691250000000 1.0
C      1  0.5813960000000  0.5409550000000  0.5308730000000 1.0
C      1  0.4186020000000  0.4590470000000  0.5308680000000 1.0
C      1  0.5409480000000  0.5308700000000  0.5814020000000 1.0
C      1  0.4590540000000  0.5308690000000  0.4185950000000 1.0
C      1  0.5409520000000  0.4691270000000  0.4186010000000 1.0
C      1  0.5813960000000  0.4691250000000  0.4590490000000 1.0
C      1  0.4590540000000  0.5814030000000  0.4691280000000 1.0
C      1  0.4691290000000  0.4590470000000  0.5814010000000 1.0
C      1  0.4186070000000  0.5308730000000  0.4590410000000 1.0
C      1  0.4186020000000  0.4691320000000  0.5409530000000 1.0
C      1  0.5813950000000  0.5308690000000  0.5409580000000 1.0
C      1  0.5409490000000  0.4185950000000  0.4691340000000 1.0
C      1  0.5409520000000  0.5814030000000  0.5308690000000 1.0
C      1  0.4590470000000  0.4186000000000  0.5308690000000 1.0
C      1  0.5308640000000  0.5409560000000  0.5814010000000 1.0
C      1  0.5308680000000  0.4590420000000  0.4186010000000 1.0
C      1  0.4691380000000  0.5409550000000  0.4185970000000 1.0
C      1  0.5524900000000  0.4670910000000  0.4573160000000 1.0
C      1  0.4671010000000  0.4573150000000  0.5524960000000 1.0
C      1  0.4573250000000  0.5524990000000  0.4670940000000 1.0
C      1  0.4475130000000  0.5329060000000  0.4573100000000 1.0
C      1  0.5524890000000  0.5329050000000  0.5426880000000 1.0
C      1  0.4475070000000  0.4670970000000  0.5426860000000 1.0
C      1  0.5328940000000  0.5426870000000  0.5524960000000 1.0
C      1  0.4671080000000  0.5426860000000  0.4475020000000 1.0
C      1  0.5328960000000  0.4573110000000  0.4475060000000 1.0
C      1  0.5426780000000  0.4474990000000  0.4671000000000 1.0
C      1  0.4573190000000  0.4475040000000  0.5329030000000 1.0
C      1  0.5426790000000  0.5524980000000  0.5329030000000 1.0
C      1  0.4671080000000  0.5524970000000  0.4573120000000 1.0
C      1  0.4573190000000  0.4670980000000  0.5524970000000 1.0
C      1  0.5524900000000  0.4573090000000  0.4670990000000 1.0
C      1  0.5328950000000  0.4475000000000  0.4573170000000 1.0
C      1  0.5328950000000  0.5524980000000  0.5426850000000 1.0
C      1  0.4671020000000  0.4475050000000  0.5426850000000 1.0
C      1  0.5426770000000  0.5329050000000  0.5524980000000 1.0
C      1  0.5426790000000  0.4670930000000  0.4475050000000 1.0
C      1  0.4573240000000  0.5329050000000  0.4475000000000 1.0
C      1  0.4475130000000  0.5426890000000  0.4670930000000 1.0
C      1  0.4475080000000  0.4573140000000  0.5329030000000 1.0
C      1  0.5524900000000  0.5426880000000  0.5329050000000 1.0
C      1  0.5267710000000  0.4368140000000  0.4935340000000 1.0
C      1  0.4368240000000  0.4935320000000  0.5267780000000 1.0
C      1  0.4935410000000  0.5267800000000  0.4368150000000 1.0
C      1  0.4732300000000  0.5631840000000  0.4935290000000 1.0
C      1  0.5267750000000  0.5631840000000  0.5064680000000 1.0
C      1  0.4732260000000  0.4368180000000  0.5064700000000 1.0
C      1  0.5631740000000  0.5064710000000  0.5267810000000 1.0
C      1  0.4368260000000  0.5064720000000  0.4732170000000 1.0
C      1  0.5631750000000  0.4935260000000  0.4732240000000 1.0
C      1  0.5064630000000  0.4732170000000  0.4368180000000 1.0
C      1  0.4935350000000  0.4732200000000  0.5631850000000 1.0
C      1  0.5064600000000  0.5267830000000  0.5631830000000 1.0
C      1  0.4368260000000  0.5267820000000  0.4935270000000 1.0
C      1  0.4935360000000  0.4368160000000  0.5267820000000 1.0
C      1  0.5267740000000  0.4935270000000  0.4368190000000 1.0
C      1  0.5631750000000  0.4732160000000  0.4935330000000 1.0
C      1  0.5631760000000  0.5267800000000  0.5064710000000 1.0
C      1  0.4368240000000  0.4732220000000  0.5064690000000 1.0
C      1  0.5064630000000  0.5631860000000  0.5267790000000 1.0
C      1  0.5064610000000  0.4368130000000  0.4732220000000 1.0
C      1  0.4935420000000  0.5631840000000  0.4732180000000 1.0
C      1  0.4732290000000  0.5064690000000  0.4368160000000 1.0
C      1  0.4732240000000  0.4935320000000  0.5631820000000 1.0
C      1  0.5267700000000  0.5064710000000  0.5631830000000 1.0
C      1  0.4724780000000  0.6093470000000  0.4817020000000 1.0
C      1  0.6093390000000  0.4817040000000  0.4724800000000 1.0
C      1  0.4817010000000  0.4724720000000  0.6093480000000 1.0
C      1  0.5275230000000  0.3906510000000  0.4817090000000 1.0
C      1  0.4724700000000  0.3906550000000  0.5182950000000 1.0
C      1  0.5275280000000  0.6093470000000  0.5182930000000 1.0
C      1  0.3906630000000  0.5182950000000  0.4724700000000 1.0
C      1  0.6093380000000  0.5182890000000  0.5275290000000 1.0
C      1  0.3906600000000  0.4817120000000  0.5275220000000 1.0
C      1  0.5182910000000  0.5275320000000  0.6093470000000 1.0
C      1  0.4817110000000  0.5275290000000  0.3906510000000 1.0
C      1  0.5182970000000  0.4724670000000  0.3906550000000 1.0
C      1  0.6093390000000  0.4724700000000  0.4817130000000 1.0
C      1  0.4817100000000  0.6093470000000  0.4724660000000 1.0
C      1  0.4724710000000  0.4817090000000  0.6093450000000 1.0
C      1  0.3906630000000  0.5275290000000  0.4817040000000 1.0
C      1  0.3906600000000  0.4724780000000  0.5182880000000 1.0
C      1  0.6093390000000  0.5275230000000  0.5182950000000 1.0
C      1  0.5182920000000  0.3906500000000  0.4724730000000 1.0
C      1  0.5182960000000  0.6093490000000  0.5275290000000 1.0
C      1  0.4817010000000  0.3906530000000  0.5275320000000 1.0
C      1  0.5275220000000  0.5182950000000  0.6093450000000 1.0
C      1  0.5275290000000  0.4817030000000  0.3906570000000 1.0
C      1  0.4724800000000  0.5182920000000  0.3906520000000 1.0
C      1  0.5541100000000  0.4999920000000  0.5660420000000 1.0
C      1  0.4999890000000  0.5660480000000  0.5541220000000 1.0
C      1  0.5660370000000  0.5541200000000  0.4999950000000 1.0
C      1  0.4458840000000  0.5000110000000  0.5660400000000 1.0
C      1  0.5541150000000  0.5000050000000  0.4339620000000 1.0
C      1  0.4458880000000  0.4999920000000  0.4339560000000 1.0
C      1  0.5000070000000  0.4339540000000  0.5541260000000 1.0
C      1  0.4999890000000  0.4339520000000  0.4458780000000 1.0
C      1  0.5000160000000  0.5660450000000  0.4458750000000 1.0
C      1  0.4339640000000  0.4458820000000  0.4999920000000 1.0
C      1  0.5660340000000  0.4458760000000  0.5000100000000 1.0
C      1  0.4339670000000  0.5541220000000  0.5000030000000 1.0
C      1  0.4999880000000  0.5541270000000  0.5660450000000 1.0
C      1  0.5660320000000  0.4999930000000  0.5541210000000 1.0
C      1  0.5541170000000  0.5660420000000  0.4999920000000 1.0
C      1  0.5000060000000  0.4458760000000  0.5660470000000 1.0
C      1  0.5000150000000  0.5541230000000  0.4339530000000 1.0
C      1  0.4999890000000  0.4458730000000  0.4339550000000 1.0
C      1  0.4339630000000  0.5000100000000  0.5541180000000 1.0
C      1  0.4339670000000  0.4999950000000  0.4458770000000 1.0
C      1  0.5660360000000  0.5000030000000  0.4458840000000 1.0
C      1  0.4458850000000  0.4339600000000  0.4999910000000 1.0
C      1  0.4458890000000  0.5660430000000  0.5000050000000 1.0
C      1  0.5541120000000  0.4339550000000  0.5000120000000 1.0
C      1  0.4456550000000  0.5800480000000  0.4678600000000 1.0
C      1  0.5800420000000  0.4678600000000  0.4456490000000 1.0
C      1  0.4678590000000  0.4456490000000  0.5800460000000 1.0
C      1  0.5543480000000  0.4199490000000  0.4678670000000 1.0
C      1  0.4456480000000  0.4199550000000  0.5321360000000 1.0
C      1  0.5543500000000  0.5800470000000  0.5321370000000 1.0
C      1  0.4199620000000  0.5321380000000  0.4456420000000 1.0
C      1  0.5800400000000  0.5321350000000  0.5543570000000 1.0
C      1  0.4199560000000  0.4678670000000  0.5543520000000 1.0
C      1  0.5321350000000  0.5543550000000  0.5800460000000 1.0
C      1  0.4678680000000  0.5543530000000  0.4199520000000 1.0
C      1  0.5321370000000  0.4456440000000  0.4199560000000 1.0
C      1  0.5800410000000  0.4456410000000  0.4678670000000 1.0
C      1  0.4678690000000  0.5800470000000  0.4456440000000 1.0
C      1  0.4456470000000  0.4678660000000  0.5800460000000 1.0
C      1  0.4199620000000  0.5543570000000  0.4678590000000 1.0
C      1  0.4199560000000  0.4456480000000  0.5321340000000 1.0
C      1  0.5800420000000  0.5543540000000  0.5321390000000 1.0
C      1  0.5321360000000  0.4199510000000  0.4456500000000 1.0
C      1  0.5321370000000  0.5800470000000  0.5543530000000 1.0
C      1  0.4678590000000  0.4199550000000  0.5543530000000 1.0
C      1  0.5543470000000  0.5321360000000  0.5800480000000 1.0
C      1  0.5543510000000  0.4678600000000  0.4199570000000 1.0
C      1  0.4456550000000  0.5321370000000  0.4199500000000 1.0
C      1  0.4889900000000  0.4784430000000  0.5765720000000 1.0
C      1  0.4784520000000  0.5765720000000  0.4889880000000 1.0
C      1  0.5765620000000  0.4889860000000  0.4784480000000 1.0
C      1  0.5110030000000  0.5215600000000  0.5765710000000 1.0
C      1  0.4889970000000  0.5215570000000  0.4234280000000 1.0
C      1  0.5110080000000  0.4784390000000  0.4234300000000 1.0
C      1  0.5215500000000  0.4234270000000  0.4889930000000 1.0
C      1  0.4784460000000  0.4234300000000  0.5110110000000 1.0
C      1  0.5215540000000  0.5765720000000  0.5110090000000 1.0
C      1  0.4234390000000  0.5110120000000  0.4784410000000 1.0
C      1  0.5765610000000  0.5110090000000  0.5215580000000 1.0
C      1  0.4234370000000  0.4889920000000  0.5215540000000 1.0
C      1  0.4784450000000  0.4889920000000  0.5765700000000 1.0
C      1  0.5765620000000  0.4784400000000  0.4889940000000 1.0
C      1  0.4889980000000  0.5765720000000  0.4784400000000 1.0
C      1  0.5215480000000  0.5110120000000  0.5765700000000 1.0
C      1  0.5215530000000  0.4889870000000  0.4234320000000 1.0
C      1  0.4784520000000  0.5110100000000  0.4234280000000 1.0
C      1  0.4234390000000  0.5215590000000  0.4889860000000 1.0
C      1  0.4234370000000  0.4784460000000  0.5110080000000 1.0
C      1  0.5765620000000  0.5215550000000  0.5110120000000 1.0
C      1  0.5110050000000  0.4234260000000  0.4784440000000 1.0
C      1  0.5110080000000  0.5765730000000  0.5215570000000 1.0
C      1  0.4889910000000  0.4234290000000  0.5215590000000 1.0
C      1  0.4900450000000  0.4266200000000  0.5632620000000 1.0
C      1  0.4266300000000  0.5632620000000  0.4900460000000 1.0
C      1  0.5632550000000  0.4900470000000  0.4266240000000 1.0
C      1  0.5099510000000  0.5733830000000  0.5632600000000 1.0
C      1  0.4900540000000  0.5733800000000  0.4367370000000 1.0
C      1  0.5099510000000  0.4266170000000  0.4367410000000 1.0
C      1  0.5733720000000  0.4367360000000  0.4900540000000 1.0
C      1  0.4266250000000  0.4367420000000  0.5099480000000 1.0
C      1  0.5733760000000  0.5632600000000  0.5099520000000 1.0
C      1  0.4367490000000  0.5099500000000  0.4266180000000 1.0
C      1  0.5632510000000  0.5099490000000  0.5733800000000 1.0
C      1  0.4367430000000  0.4900540000000  0.5733780000000 1.0
C      1  0.4266240000000  0.4900540000000  0.5632580000000 1.0
C      1  0.5632520000000  0.4266170000000  0.4900540000000 1.0
C      1  0.4900540000000  0.5632610000000  0.4266180000000 1.0
C      1  0.5733710000000  0.5099480000000  0.5632610000000 1.0
C      1  0.5733750000000  0.4900470000000  0.4367440000000 1.0
C      1  0.4266290000000  0.5099510000000  0.4367370000000 1.0
C      1  0.4367500000000  0.5733810000000  0.4900460000000 1.0
C      1  0.4367440000000  0.4266230000000  0.5099480000000 1.0
C      1  0.5632560000000  0.5733790000000  0.5099510000000 1.0
C      1  0.5099510000000  0.4367360000000  0.4266210000000 1.0
C      1  0.5099500000000  0.5632640000000  0.5733800000000 1.0
C      1  0.4900450000000  0.4367400000000  0.5733820000000 1.0
C      1  0.4011690000000  0.5303480000000  0.4900030000000 1.0
C      1  0.5303450000000  0.4900040000000  0.4011620000000 1.0
C      1  0.4900020000000  0.4011580000000  0.5303500000000 1.0
C      1  0.5988320000000  0.4696510000000  0.4900110000000 1.0
C      1  0.4011660000000  0.4696590000000  0.5099900000000 1.0
C      1  0.5988330000000  0.5303430000000  0.5099960000000 1.0
C      1  0.4696630000000  0.5099920000000  0.4011580000000 1.0
C      1  0.5303380000000  0.5099940000000  0.5988410000000 1.0
C      1  0.4696550000000  0.4900100000000  0.5988400000000 1.0
C      1  0.5099960000000  0.5988440000000  0.5303460000000 1.0
C      1  0.4900100000000  0.5988420000000  0.4696500000000 1.0
C      1  0.5099920000000  0.4011560000000  0.4696550000000 1.0
C      1  0.5303390000000  0.4011560000000  0.4900100000000 1.0
C      1  0.4900110000000  0.5303470000000  0.4011570000000 1.0
C      1  0.4011660000000  0.4900110000000  0.5303410000000 1.0
C      1  0.4696620000000  0.5988420000000  0.4900030000000 1.0
C      1  0.4696550000000  0.4011600000000  0.5099940000000 1.0
C      1  0.5303450000000  0.5988420000000  0.5099930000000 1.0
C      1  0.5099970000000  0.4696490000000  0.4011600000000 1.0
C      1  0.5099910000000  0.5303500000000  0.5988410000000 1.0
C      1  0.4900010000000  0.4696540000000  0.5988420000000 1.0
C      1  0.5988310000000  0.5099900000000  0.5303470000000 1.0
C      1  0.5988330000000  0.4900040000000  0.4696600000000 1.0
C      1  0.4011690000000  0.5099950000000  0.4696520000000 1.0
C      1  0.5929010000000  0.5111270000000  0.4786840000000 1.0
C      1  0.5111260000000  0.4786790000000  0.5929140000000 1.0
C      1  0.4786840000000  0.5929130000000  0.5111290000000 1.0
C      1  0.4071000000000  0.4888720000000  0.4786760000000 1.0
C      1  0.5928980000000  0.4888670000000  0.5213230000000 1.0
C      1  0.4070990000000  0.5111340000000  0.5213170000000 1.0
C      1  0.4888670000000  0.5213250000000  0.5929120000000 1.0
C      1  0.5111340000000  0.5213210000000  0.4070870000000 1.0
C      1  0.4888730000000  0.4786760000000  0.4070870000000 1.0
C      1  0.5213160000000  0.4070860000000  0.5111340000000 1.0
C      1  0.4786790000000  0.4070880000000  0.4888700000000 1.0
C      1  0.5213230000000  0.5929120000000  0.4888670000000 1.0
C      1  0.5111340000000  0.5929140000000  0.4786760000000 1.0
C      1  0.4786780000000  0.5111340000000  0.5929100000000 1.0
C      1  0.5928990000000  0.4786760000000  0.5111340000000 1.0
C      1  0.4888680000000  0.4070850000000  0.4786790000000 1.0
C      1  0.4888720000000  0.5929150000000  0.5213200000000 1.0
C      1  0.5111270000000  0.4070850000000  0.5213250000000 1.0
C      1  0.5213150000000  0.4888700000000  0.5929110000000 1.0
C      1  0.5213220000000  0.5111290000000  0.4070910000000 1.0
C      1  0.4786840000000  0.4888670000000  0.4070880000000 1.0
C      1  0.4071000000000  0.5213240000000  0.5111260000000 1.0
C      1  0.4071000000000  0.4786820000000  0.4888670000000 1.0
C      1  0.5929020000000  0.5213180000000  0.4888730000000 1.0
C      1  0.5443080000000  0.5061800000000  0.4128120000000 1.0
C      1  0.5061800000000  0.4128020000000  0.5443150000000 1.0
C      1  0.4128190000000  0.5443110000000  0.5061790000000 1.0
C      1  0.4556980000000  0.4938160000000  0.4128070000000 1.0
C      1  0.5443010000000  0.4938170000000  0.5871910000000 1.0
C      1  0.4556920000000  0.5061860000000  0.5871900000000 1.0
C      1  0.4938170000000  0.5872000000000  0.5443110000000 1.0
C      1  0.5061890000000  0.5871970000000  0.4556860000000 1.0
C      1  0.4938150000000  0.4128010000000  0.4556890000000 1.0
C      1  0.5871820000000  0.4556880000000  0.5061880000000 1.0
C      1  0.4128160000000  0.4556950000000  0.4938140000000 1.0
C      1  0.5871850000000  0.5443070000000  0.4938190000000 1.0
C      1  0.5061890000000  0.5443110000000  0.4128030000000 1.0
C      1  0.4128160000000  0.5061870000000  0.5443050000000 1.0
C      1  0.5443030000000  0.4128050000000  0.5061870000000 1.0
C      1  0.4938170000000  0.4556850000000  0.4128040000000 1.0
C      1  0.4938140000000  0.5443150000000  0.5871960000000 1.0
C      1  0.5061790000000  0.4556880000000  0.5871980000000 1.0
C      1  0.5871790000000  0.4938150000000  0.5443100000000 1.0
C      1  0.5871830000000  0.5061800000000  0.4556960000000 1.0
C      1  0.4128190000000  0.4938190000000  0.4556890000000 1.0
C      1  0.4556970000000  0.5871930000000  0.5061800000000 1.0
C      1  0.4556930000000  0.4128100000000  0.4938160000000 1.0
C      1  0.5443090000000  0.5871930000000  0.4938170000000 1.0
C      1  0.5109930000000  0.5504170000000  0.4249050000000 1.0
C      1  0.5504030000000  0.4249100000000  0.5109930000000 1.0
C      1  0.4249220000000  0.5109910000000  0.5504050000000 1.0
C      1  0.4890110000000  0.4495800000000  0.4249060000000 1.0
C      1  0.5109850000000  0.4495820000000  0.5750960000000 1.0
C      1  0.4890090000000  0.5504210000000  0.5750930000000 1.0
C      1  0.4495980000000  0.5750880000000  0.5109860000000 1.0
C      1  0.5504090000000  0.5750870000000  0.4890110000000 1.0
C      1  0.4495940000000  0.4249160000000  0.4890100000000 1.0
C      1  0.5750730000000  0.4890110000000  0.5504090000000 1.0
C      1  0.4249240000000  0.4890140000000  0.4495890000000 1.0
C      1  0.5750770000000  0.5109850000000  0.4495960000000 1.0
C      1  0.5504050000000  0.5109860000000  0.4249190000000 1.0
C      1  0.4249240000000  0.5504110000000  0.5109840000000 1.0
C      1  0.5109860000000  0.4249050000000  0.5504200000000 1.0
C      1  0.4495980000000  0.4890110000000  0.4249120000000 1.0
C      1  0.4495930000000  0.5109920000000  0.5750830000000 1.0
C      1  0.5503990000000  0.4890110000000  0.5750850000000 1.0
C      1  0.5750760000000  0.4495870000000  0.5109920000000 1.0
C      1  0.5750800000000  0.5504090000000  0.4890140000000 1.0
C      1  0.4249220000000  0.4495940000000  0.4890100000000 1.0
C      1  0.4890110000000  0.5750970000000  0.5504160000000 1.0
C      1  0.4890110000000  0.4249030000000  0.4495830000000 1.0
C      1  0.5109950000000  0.5750940000000  0.4495810000000 1.0
C      1  0.5341970000000  0.5444480000000  0.4177150000000 1.0
C      1  0.5444430000000  0.4177120000000  0.5341970000000 1.0
C      1  0.4177350000000  0.5341940000000  0.5444420000000 1.0
C      1  0.4658080000000  0.4555490000000  0.4177110000000 1.0
C      1  0.5341880000000  0.4555500000000  0.5822880000000 1.0
C      1  0.4658050000000  0.5444530000000  0.5822860000000 1.0
C      1  0.4555560000000  0.5822870000000  0.5341900000000 1.0
C      1  0.5444510000000  0.5822850000000  0.4658070000000 1.0
C      1  0.4555540000000  0.4177160000000  0.4658070000000 1.0
C      1  0.5822610000000  0.4658070000000  0.5444480000000 1.0
C      1  0.4177360000000  0.4658110000000  0.4555520000000 1.0
C      1  0.5822670000000  0.5341880000000  0.4555580000000 1.0
C      1  0.5444490000000  0.5341900000000  0.4177210000000 1.0
C      1  0.4177350000000  0.5444490000000  0.5341870000000 1.0
C      1  0.5341900000000  0.4177090000000  0.5444540000000 1.0
C      1  0.4555560000000  0.4658070000000  0.4177150000000 1.0
C      1  0.4555530000000  0.5341960000000  0.5822810000000 1.0
C      1  0.5444400000000  0.4658070000000  0.5822830000000 1.0
C      1  0.5822620000000  0.4555510000000  0.5341950000000 1.0
C      1  0.5822680000000  0.5444430000000  0.4658120000000 1.0
C      1  0.4177350000000  0.4555560000000  0.4658070000000 1.0
C      1  0.4658080000000  0.5822910000000  0.5444480000000 1.0
C      1  0.4658060000000  0.4177110000000  0.4555490000000 1.0
C      1  0.5341980000000  0.5822890000000  0.4555490000000 1.0
C      1  0.4907410000000  0.5418870000000  0.4356680000000 1.0
C      1  0.5418780000000  0.4356670000000  0.4907350000000 1.0
C      1  0.4356740000000  0.4907310000000  0.5418840000000 1.0
C      1  0.5092630000000  0.4581100000000  0.4356710000000 1.0
C      1  0.4907340000000  0.4581140000000  0.5643320000000 1.0
C      1  0.5092610000000  0.5418900000000  0.5643300000000 1.0
C      1  0.4581230000000  0.5643310000000  0.4907280000000 1.0
C      1  0.5418820000000  0.5643310000000  0.5092690000000 1.0
C      1  0.4581190000000  0.4356710000000  0.5092690000000 1.0
C      1  0.5643220000000  0.5092720000000  0.5418870000000 1.0
C      1  0.4356780000000  0.5092730000000  0.4581110000000 1.0
C      1  0.5643250000000  0.4907240000000  0.4581170000000 1.0
C      1  0.5418810000000  0.4907270000000  0.4356730000000 1.0
C      1  0.4356780000000  0.5418880000000  0.4907250000000 1.0
C      1  0.4907350000000  0.4356700000000  0.5418880000000 1.0
C      1  0.4581230000000  0.5092700000000  0.4356680000000 1.0
C      1  0.4581180000000  0.4907330000000  0.5643290000000 1.0
C      1  0.5418770000000  0.5092710000000  0.5643300000000 1.0
C      1  0.5643230000000  0.4581100000000  0.4907320000000 1.0
C      1  0.5643250000000  0.5418860000000  0.5092720000000 1.0
C      1  0.4356750000000  0.4581160000000  0.5092700000000 1.0
C      1  0.5092630000000  0.5643330000000  0.5418860000000 1.0
C      1  0.5092620000000  0.4356670000000  0.4581150000000 1.0
C      1  0.4907420000000  0.5643310000000  0.4581110000000 1.0
C      1  0.4821460000000  0.5519040000000  0.4593780000000 1.0
C      1  0.5518960000000  0.4593760000000  0.4821360000000 1.0
C      1  0.4593840000000  0.4821350000000  0.5519030000000 1.0
C      1  0.5178580000000  0.4480930000000  0.4593820000000 1.0
C      1  0.4821390000000  0.4480970000000  0.5406210000000 1.0
C      1  0.5178580000000  0.5519060000000  0.5406190000000 1.0
C      1  0.4481060000000  0.5406220000000  0.4821300000000 1.0
C      1  0.5518970000000  0.5406210000000  0.5178670000000 1.0
C      1  0.4481020000000  0.4593810000000  0.5178660000000 1.0
C      1  0.5406110000000  0.5178670000000  0.5519040000000 1.0
C      1  0.4593890000000  0.5178670000000  0.4480940000000 1.0
C      1  0.5406140000000  0.4821300000000  0.4480990000000 1.0
C      1  0.5518970000000  0.4821290000000  0.4593830000000 1.0
C      1  0.4593900000000  0.5519050000000  0.4821320000000 1.0
C      1  0.4821390000000  0.4593810000000  0.5519040000000 1.0
C      1  0.4481050000000  0.5178680000000  0.4593770000000 1.0
C      1  0.4481010000000  0.4821350000000  0.5406190000000 1.0
C      1  0.5518950000000  0.5178680000000  0.5406210000000 1.0
C      1  0.5406120000000  0.4480930000000  0.4821370000000 1.0
C      1  0.5406140000000  0.5519050000000  0.5178660000000 1.0
C      1  0.4593850000000  0.4480980000000  0.5178650000000 1.0
C      1  0.5178570000000  0.5406220000000  0.5519030000000 1.0
C      1  0.5178580000000  0.4593770000000  0.4480980000000 1.0
C      1  0.4821450000000  0.5406200000000  0.4480950000000 1.0
C      1  0.5255660000000  0.4843290000000  0.4477010000000 1.0
C      1  0.4843390000000  0.4476990000000  0.5255730000000 1.0
C      1  0.4477080000000  0.5255750000000  0.4843300000000 1.0
C      1  0.4744370000000  0.5156670000000  0.4476970000000 1.0
C      1  0.5255630000000  0.5156690000000  0.5523010000000 1.0
C      1  0.4744320000000  0.4843340000000  0.5523010000000 1.0
C      1  0.5156600000000  0.5523030000000  0.5255720000000 1.0
C      1  0.4843440000000  0.5523020000000  0.4744260000000 1.0
C      1  0.5156580000000  0.4476960000000  0.4744300000000 1.0
C      1  0.5522930000000  0.4744230000000  0.4843360000000 1.0
C      1  0.4477060000000  0.4744280000000  0.5156660000000 1.0
C      1  0.5522930000000  0.5255740000000  0.5156680000000 1.0
C      1  0.4843440000000  0.5255730000000  0.4476970000000 1.0
C      1  0.4477050000000  0.4843340000000  0.5255720000000 1.0
C      1  0.5255640000000  0.4476960000000  0.4843360000000 1.0
C      1  0.5156590000000  0.4744240000000  0.4477010000000 1.0
C      1  0.5156570000000  0.5255750000000  0.5523010000000 1.0
C      1  0.4843380000000  0.4744280000000  0.5523020000000 1.0
C      1  0.5522920000000  0.5156680000000  0.5255740000000 1.0
C      1  0.5522930000000  0.4843280000000  0.4744300000000 1.0
C      1  0.4477080000000  0.5156690000000  0.4744240000000 1.0
C      1  0.4744380000000  0.5523020000000  0.4843310000000 1.0
C      1  0.4744330000000  0.4476990000000  0.5156670000000 1.0
C      1  0.5255660000000  0.5523030000000  0.5156660000000 1.0
END
