TITL C-855863-9781-325 -8.32531125714403 1000000 -3277.4036633313 0 0 480 (C1) n - 1
REM
REM in /scratch/bkarasulu/Larger-Clusters
REM
REM
REM
REM
REM
REM ./C.cell (28d0ae7d613b82ecca3ae8fabf5dfced)
REM
REM compiler GCC version 9.2.1 20190827 (Red Hat 9.2.1-1)
REM options -cpp -mtune=generic -march=x86-64 -g -O0 -fpre-include=/usr/include/finclude/math-vector-fortran.h
REM seed -1914371523 -906162607 -1255048135 -327313315 753936373 -208363852 -820994187 840418894 989228654 95798453 -622543908 685771356 -683033677 -737423162 -215328613 289632183 2300984 969530204 45151693 1027436177 238916585 -469552315 119450495 -1499093610 -156603754 -2053322842 1120740752 1034083218 -1888958477 -1865525348 1537730804 1828126969 1801154183
REM
CELL 1.54180  100.00000  100.00000  100.00000   90.00000   90.00000   90.00000
LATT -1
SFAC C  
C      1  0.4827800000000  0.5614740000000  0.5878060000000 1.0
C      1  0.5485830000000  0.5812210000000  0.4924520000000 1.0
C      1  0.5896830000000  0.4934550000000  0.5556420000000 1.0
C      1  0.5040100000000  0.4506470000000  0.5804920000000 1.0
C      1  0.4902640000000  0.4492990000000  0.4121310000000 1.0
C      1  0.5111910000000  0.5519480000000  0.4093130000000 1.0
C      1  0.4491540000000  0.4159080000000  0.4951720000000 1.0
C      1  0.5498720000000  0.4183750000000  0.5051880000000 1.0
C      1  0.4526950000000  0.5849690000000  0.5124810000000 1.0
C      1  0.4094650000000  0.5050720000000  0.5542290000000 1.0
C      1  0.5892910000000  0.5070570000000  0.4457380000000 1.0
C      1  0.4122660000000  0.4975290000000  0.4479320000000 1.0
C      1  0.4983150000000  0.5467270000000  0.4111690000000 1.0
C      1  0.5527900000000  0.5847960000000  0.5050490000000 1.0
C      1  0.5862880000000  0.4943280000000  0.4500090000000 1.0
C      1  0.5035020000000  0.4522820000000  0.4141940000000 1.0
C      1  0.4913030000000  0.4453970000000  0.5827170000000 1.0
C      1  0.4952040000000  0.5582620000000  0.5911270000000 1.0
C      1  0.4454690000000  0.4130900000000  0.5081510000000 1.0
C      1  0.5554420000000  0.4166970000000  0.4923240000000 1.0
C      1  0.4537370000000  0.5836310000000  0.4979100000000 1.0
C      1  0.4110220000000  0.5102710000000  0.4447310000000 1.0
C      1  0.5896120000000  0.5062550000000  0.5584050000000 1.0
C      1  0.4095780000000  0.4920890000000  0.5537170000000 1.0
C      1  0.4625470000000  0.4528050000000  0.4568920000000 1.0
C      1  0.4540100000000  0.4603480000000  0.4499080000000 1.0
C      1  0.4493160000000  0.4657720000000  0.4369580000000 1.0
C      1  0.5382290000000  0.5577370000000  0.4416060000000 1.0
C      1  0.4538110000000  0.5581590000000  0.5540480000000 1.0
C      1  0.5402500000000  0.4485820000000  0.5433400000000 1.0
C      1  0.5515410000000  0.5376590000000  0.4537010000000 1.0
C      1  0.4424950000000  0.5333240000000  0.5509920000000 1.0
C      1  0.5491390000000  0.4558070000000  0.5503580000000 1.0
C      1  0.5451820000000  0.5448650000000  0.4441060000000 1.0
C      1  0.4474300000000  0.5445150000000  0.5562240000000 1.0
C      1  0.5537270000000  0.4606380000000  0.5636580000000 1.0
C      1  0.4603490000000  0.4394700000000  0.5523020000000 1.0
C      1  0.4497490000000  0.4620410000000  0.5489480000000 1.0
C      1  0.4605280000000  0.4535750000000  0.5527660000000 1.0
C      1  0.5394630000000  0.5502650000000  0.5431910000000 1.0
C      1  0.4497190000000  0.5555980000000  0.4662900000000 1.0
C      1  0.5502790000000  0.4513440000000  0.4595450000000 1.0
C      1  0.5489900000000  0.5435270000000  0.5499270000000 1.0
C      1  0.4418790000000  0.5512050000000  0.4562540000000 1.0
C      1  0.5635480000000  0.4459600000000  0.4646670000000 1.0
C      1  0.5537640000000  0.5383070000000  0.5630970000000 1.0
C      1  0.4412870000000  0.5446750000000  0.4426400000000 1.0
C      1  0.5437860000000  0.4598020000000  0.4514960000000 1.0
C      1  0.6088390000000  0.5333760000000  0.5058010000000 1.0
C      1  0.5409620000000  0.5036350000000  0.5929160000000 1.0
C      1  0.4944650000000  0.5934330000000  0.5304610000000 1.0
C      1  0.3939440000000  0.4681470000000  0.5055740000000 1.0
C      1  0.5987210000000  0.4607110000000  0.4946090000000 1.0
C      1  0.3960180000000  0.5337580000000  0.4966050000000 1.0
C      1  0.4701710000000  0.4918700000000  0.6012870000000 1.0
C      1  0.5340240000000  0.4926780000000  0.3937280000000 1.0
C      1  0.4599690000000  0.5119640000000  0.4115840000000 1.0
C      1  0.4905460000000  0.4058690000000  0.5368970000000 1.0
C      1  0.5043790000000  0.3975110000000  0.4675070000000 1.0
C      1  0.4944060000000  0.5902550000000  0.4587510000000 1.0
C      1  0.6084930000000  0.5321320000000  0.4934300000000 1.0
C      1  0.5332540000000  0.5050320000000  0.3925560000000 1.0
C      1  0.5065460000000  0.5891940000000  0.4572410000000 1.0
C      1  0.3942990000000  0.4679290000000  0.4931480000000 1.0
C      1  0.6016320000000  0.4619040000000  0.5064790000000 1.0
C      1  0.3957650000000  0.5348000000000  0.5090050000000 1.0
C      1  0.4569440000000  0.4992030000000  0.4109800000000 1.0
C      1  0.5451380000000  0.4912020000000  0.5929080000000 1.0
C      1  0.4698040000000  0.5042850000000  0.6019210000000 1.0
C      1  0.4919760000000  0.3970590000000  0.4670860000000 1.0
C      1  0.5023600000000  0.4033310000000  0.5348630000000 1.0
C      1  0.4827890000000  0.5908600000000  0.5332490000000 1.0
C      1  0.5414070000000  0.5115980000000  0.5179610000000 1.0
C      1  0.5122320000000  0.5189690000000  0.5333940000000 1.0
C      1  0.5257150000000  0.5308210000000  0.5155970000000 1.0
C      1  0.4610560000000  0.4866490000000  0.5175670000000 1.0
C      1  0.5374340000000  0.4908490000000  0.4823660000000 1.0
C      1  0.4677040000000  0.5134620000000  0.4757960000000 1.0
C      1  0.4867790000000  0.4795800000000  0.5307090000000 1.0
C      1  0.5166020000000  0.4766270000000  0.4692590000000 1.0
C      1  0.4913900000000  0.5221610000000  0.4654900000000 1.0
C      1  0.4789370000000  0.4689730000000  0.5096910000000 1.0
C      1  0.5261100000000  0.4680930000000  0.4923220000000 1.0
C      1  0.4792260000000  0.5331360000000  0.4879530000000 1.0
C      1  0.5329760000000  0.5152410000000  0.4772310000000 1.0
C      1  0.5134770000000  0.5103560000000  0.4613600000000 1.0
C      1  0.5181460000000  0.5313900000000  0.4914250000000 1.0
C      1  0.4635700000000  0.4898730000000  0.4849200000000 1.0
C      1  0.5417030000000  0.4864970000000  0.5170760000000 1.0
C      1  0.4614380000000  0.5117540000000  0.5209230000000 1.0
C      1  0.4915490000000  0.4821340000000  0.4677670000000 1.0
C      1  0.5123900000000  0.4806630000000  0.5327160000000 1.0
C      1  0.4867530000000  0.5207120000000  0.5325560000000 1.0
C      1  0.4780510000000  0.4700790000000  0.4847850000000 1.0
C      1  0.5256280000000  0.4677230000000  0.5160450000000 1.0
C      1  0.4755540000000  0.5315500000000  0.5128720000000 1.0
C      1  0.4215410000000  0.4931880000000  0.5303410000000 1.0
C      1  0.4960240000000  0.5346810000000  0.4188210000000 1.0
C      1  0.5287030000000  0.4236900000000  0.4954000000000 1.0
C      1  0.5828550000000  0.5066540000000  0.5304190000000 1.0
C      1  0.4238850000000  0.5076860000000  0.4725170000000 1.0
C      1  0.5820520000000  0.4926600000000  0.4640380000000 1.0
C      1  0.5072630000000  0.4653830000000  0.4194490000000 1.0
C      1  0.4946300000000  0.4701040000000  0.5703910000000 1.0
C      1  0.5071430000000  0.5313630000000  0.5776330000000 1.0
C      1  0.4659820000000  0.5780520000000  0.4923250000000 1.0
C      1  0.5269490000000  0.5773130000000  0.5022560000000 1.0
C      1  0.4688790000000  0.4256150000000  0.5037500000000 1.0
C      1  0.4216260000000  0.4956880000000  0.4709420000000 1.0
C      1  0.4948800000000  0.5308520000000  0.5766020000000 1.0
C      1  0.5355520000000  0.4206060000000  0.5064980000000 1.0
C      1  0.5798680000000  0.5042540000000  0.4704410000000 1.0
C      1  0.4204820000000  0.5053710000000  0.5311760000000 1.0
C      1  0.5825100000000  0.4944210000000  0.5303900000000 1.0
C      1  0.5055830000000  0.4645390000000  0.5760030000000 1.0
C      1  0.4971670000000  0.4729010000000  0.4244460000000 1.0
C      1  0.5070320000000  0.5282150000000  0.4234520000000 1.0
C      1  0.4730290000000  0.5707330000000  0.5013160000000 1.0
C      1  0.5343440000000  0.5777600000000  0.4910050000000 1.0
C      1  0.4626200000000  0.4213620000000  0.4926270000000 1.0
C      1  0.5237780000000  0.5190330000000  0.5645980000000 1.0
C      1  0.5182010000000  0.5653600000000  0.5221170000000 1.0
C      1  0.5703650000000  0.5245620000000  0.5212000000000 1.0
C      1  0.4754870000000  0.4807580000000  0.5602960000000 1.0
C      1  0.5236750000000  0.4774990000000  0.4331120000000 1.0
C      1  0.4795710000000  0.5249210000000  0.4357890000000 1.0
C      1  0.4804860000000  0.4372430000000  0.5207070000000 1.0
C      1  0.5182300000000  0.4373380000000  0.4783250000000 1.0
C      1  0.4787850000000  0.5640230000000  0.4770870000000 1.0
C      1  0.4340140000000  0.4744410000000  0.5204760000000 1.0
C      1  0.5682020000000  0.4798510000000  0.4799650000000 1.0
C      1  0.4364570000000  0.5260100000000  0.4827320000000 1.0
C      1  0.5261710000000  0.5168500000000  0.4322430000000 1.0
C      1  0.5181570000000  0.5634740000000  0.4786480000000 1.0
C      1  0.5687010000000  0.5225670000000  0.4816070000000 1.0
C      1  0.4803620000000  0.4849440000000  0.4364440000000 1.0
C      1  0.5219680000000  0.4791450000000  0.5647000000000 1.0
C      1  0.4763770000000  0.5206100000000  0.5635540000000 1.0
C      1  0.4783580000000  0.4344210000000  0.4782850000000 1.0
C      1  0.5203220000000  0.4323310000000  0.5222960000000 1.0
C      1  0.4785480000000  0.5617560000000  0.5232850000000 1.0
C      1  0.4336350000000  0.4773180000000  0.4805920000000 1.0
C      1  0.5710210000000  0.4751490000000  0.5200190000000 1.0
C      1  0.4339320000000  0.5234810000000  0.5224790000000 1.0
C      1  0.5163040000000  0.5799510000000  0.4316910000000 1.0
C      1  0.5914010000000  0.4382430000000  0.5207950000000 1.0
C      1  0.4394910000000  0.5117680000000  0.5882220000000 1.0
C      1  0.4837820000000  0.4132670000000  0.4382720000000 1.0
C      1  0.5169080000000  0.4089390000000  0.5602610000000 1.0
C      1  0.4736360000000  0.5809650000000  0.5578130000000 1.0
C      1  0.4133090000000  0.5627080000000  0.5171780000000 1.0
C      1  0.5889870000000  0.5588920000000  0.4847550000000 1.0
C      1  0.4107860000000  0.4390050000000  0.4859230000000 1.0
C      1  0.5574310000000  0.4840410000000  0.5885820000000 1.0
C      1  0.4450140000000  0.4913030000000  0.4147280000000 1.0
C      1  0.5613080000000  0.5126570000000  0.4105210000000 1.0
C      1  0.5080120000000  0.5891830000000  0.5562170000000 1.0
C      1  0.5854420000000  0.4357200000000  0.4863420000000 1.0
C      1  0.4356840000000  0.5224620000000  0.4217360000000 1.0
C      1  0.4829590000000  0.4170790000000  0.5623250000000 1.0
C      1  0.5112360000000  0.4150010000000  0.4392820000000 1.0
C      1  0.4817850000000  0.5833690000000  0.4333210000000 1.0
C      1  0.4136520000000  0.5623720000000  0.4896480000000 1.0
C      1  0.5908720000000  0.5616990000000  0.5119910000000 1.0
C      1  0.4095360000000  0.4389880000000  0.5134710000000 1.0
C      1  0.5621600000000  0.4854020000000  0.4111530000000 1.0
C      1  0.4403880000000  0.4846900000000  0.5863870000000 1.0
C      1  0.5643740000000  0.5161840000000  0.5828920000000 1.0
C      1  0.4829830000000  0.4280020000000  0.4193440000000 1.0
C      1  0.4262290000000  0.4202960000000  0.4861720000000 1.0
C      1  0.4252470000000  0.4874020000000  0.4293650000000 1.0
C      1  0.5157240000000  0.5737700000000  0.4192890000000 1.0
C      1  0.4756020000000  0.5748460000000  0.5700370000000 1.0
C      1  0.5150740000000  0.4285990000000  0.5747900000000 1.0
C      1  0.5712000000000  0.5752350000000  0.4836440000000 1.0
C      1  0.4283090000000  0.5821340000000  0.5171770000000 1.0
C      1  0.5711440000000  0.4246330000000  0.5175120000000 1.0
C      1  0.5812270000000  0.5140850000000  0.4245690000000 1.0
C      1  0.4193830000000  0.5126650000000  0.5746110000000 1.0
C      1  0.5771090000000  0.4818840000000  0.5736900000000 1.0
C      1  0.4847460000000  0.4238460000000  0.5742980000000 1.0
C      1  0.4234570000000  0.4192990000000  0.5146450000000 1.0
C      1  0.4193910000000  0.4838180000000  0.5742120000000 1.0
C      1  0.5051260000000  0.5762500000000  0.5768590000000 1.0
C      1  0.4857650000000  0.5676660000000  0.4153890000000 1.0
C      1  0.5114690000000  0.4291240000000  0.4193630000000 1.0
C      1  0.5747010000000  0.5797450000000  0.5116850000000 1.0
C      1  0.4304520000000  0.5802280000000  0.4896590000000 1.0
C      1  0.5782680000000  0.4239500000000  0.4878460000000 1.0
C      1  0.5763350000000  0.5139420000000  0.5759710000000 1.0
C      1  0.4231770000000  0.5194830000000  0.4271830000000 1.0
C      1  0.5800590000000  0.4855270000000  0.4274590000000 1.0
C      1  0.5338760000000  0.5697020000000  0.4438650000000 1.0
C      1  0.5603320000000  0.4637620000000  0.5517770000000 1.0
C      1  0.4557180000000  0.5504790000000  0.5657030000000 1.0
C      1  0.4685620000000  0.4556980000000  0.4686680000000 1.0
C      1  0.5336840000000  0.4520710000000  0.5320140000000 1.0
C      1  0.4571950000000  0.5684820000000  0.5465040000000 1.0
C      1  0.4406870000000  0.5222590000000  0.5451180000000 1.0
C      1  0.5555560000000  0.5307820000000  0.4631760000000 1.0
C      1  0.4425490000000  0.4681110000000  0.4488980000000 1.0
C      1  0.5508420000000  0.4625070000000  0.5764280000000 1.0
C      1  0.4519910000000  0.4686920000000  0.4242810000000 1.0
C      1  0.5362970000000  0.5460180000000  0.4338890000000 1.0
C      1  0.5331690000000  0.5466880000000  0.5318230000000 1.0
C      1  0.5757570000000  0.4479670000000  0.4685660000000 1.0
C      1  0.4464170000000  0.5402100000000  0.4313950000000 1.0
C      1  0.4650410000000  0.4282000000000  0.5514900000000 1.0
C      1  0.5509630000000  0.4398810000000  0.4672440000000 1.0
C      1  0.4571230000000  0.5552410000000  0.4763560000000 1.0
C      1  0.4313350000000  0.5432070000000  0.4525080000000 1.0
C      1  0.5606560000000  0.5362280000000  0.5507260000000 1.0
C      1  0.4436800000000  0.4706250000000  0.5424580000000 1.0
C      1  0.5327680000000  0.4672220000000  0.4541840000000 1.0
C      1  0.4730510000000  0.4589770000000  0.5535640000000 1.0
C      1  0.5515370000000  0.5341570000000  0.5752570000000 1.0
C      1  0.4718040000000  0.4637050000000  0.5215860000000 1.0
C      1  0.4627830000000  0.5269250000000  0.4731260000000 1.0
C      1  0.5311460000000  0.4710500000000  0.4688160000000 1.0
C      1  0.5331140000000  0.5314490000000  0.5286660000000 1.0
C      1  0.4733220000000  0.5371020000000  0.4737500000000 1.0
C      1  0.5300070000000  0.4617250000000  0.4798830000000 1.0
C      1  0.5423060000000  0.4791840000000  0.4757160000000 1.0
C      1  0.4610280000000  0.4738860000000  0.5245720000000 1.0
C      1  0.5447480000000  0.5245430000000  0.5232700000000 1.0
C      1  0.4807660000000  0.5317980000000  0.4623940000000 1.0
C      1  0.5254580000000  0.5229440000000  0.5384890000000 1.0
C      1  0.4735430000000  0.4732800000000  0.5332940000000 1.0
C      1  0.4704890000000  0.4707000000000  0.4717780000000 1.0
C      1  0.4604250000000  0.5239860000000  0.5290600000000 1.0
C      1  0.5249010000000  0.4757310000000  0.5386410000000 1.0
C      1  0.5219760000000  0.5367790000000  0.4783050000000 1.0
C      1  0.4692390000000  0.5356210000000  0.5259610000000 1.0
C      1  0.5331230000000  0.4673520000000  0.5291340000000 1.0
C      1  0.5448490000000  0.4736100000000  0.5225840000000 1.0
C      1  0.4596670000000  0.4777070000000  0.4785340000000 1.0
C      1  0.5283550000000  0.5273520000000  0.4700970000000 1.0
C      1  0.4732670000000  0.5266050000000  0.5371830000000 1.0
C      1  0.5251290000000  0.5188470000000  0.4587280000000 1.0
C      1  0.4785650000000  0.4790040000000  0.4621360000000 1.0
C      1  0.4942590000000  0.5121730000000  0.4751030000000 1.0
C      1  0.5192270000000  0.4811460000000  0.4941100000000 1.0
C      1  0.4723970000000  0.4929830000000  0.5118720000000 1.0
C      1  0.5099730000000  0.4800170000000  0.4817560000000 1.0
C      1  0.4935260000000  0.4821630000000  0.5181520000000 1.0
C      1  0.5068400000000  0.5174870000000  0.5204140000000 1.0
C      1  0.4815050000000  0.5203770000000  0.4936650000000 1.0
C      1  0.5192230000000  0.5173870000000  0.5107940000000 1.0
C      1  0.4833370000000  0.4826750000000  0.5067200000000 1.0
C      1  0.5292530000000  0.5059860000000  0.5143660000000 1.0
C      1  0.4807850000000  0.5090700000000  0.4832790000000 1.0
C      1  0.5255410000000  0.4941930000000  0.4883080000000 1.0
C      1  0.4926900000000  0.5185490000000  0.5198120000000 1.0
C      1  0.5192770000000  0.4809580000000  0.5101240000000 1.0
C      1  0.4766940000000  0.4948690000000  0.4862230000000 1.0
C      1  0.5075540000000  0.4819270000000  0.5193940000000 1.0
C      1  0.4962620000000  0.4820900000000  0.4811360000000 1.0
C      1  0.5080890000000  0.5088370000000  0.4744660000000 1.0
C      1  0.4813700000000  0.5185770000000  0.5086540000000 1.0
C      1  0.5183830000000  0.5184510000000  0.4960840000000 1.0
C      1  0.4847490000000  0.4828170000000  0.4907090000000 1.0
C      1  0.5205830000000  0.5081470000000  0.4850490000000 1.0
C      1  0.4719770000000  0.5068300000000  0.5129020000000 1.0
C      1  0.5294870000000  0.4921470000000  0.5138860000000 1.0
C      1  0.4045670000000  0.5380390000000  0.5199880000000 1.0
C      1  0.5363290000000  0.5155080000000  0.4024050000000 1.0
C      1  0.5164430000000  0.4041870000000  0.5357410000000 1.0
C      1  0.5989370000000  0.4619830000000  0.5204020000000 1.0
C      1  0.4035670000000  0.4641310000000  0.4826370000000 1.0
C      1  0.5987050000000  0.5345170000000  0.4829480000000 1.0
C      1  0.4650460000000  0.4863360000000  0.4115480000000 1.0
C      1  0.5375660000000  0.4783880000000  0.5909220000000 1.0
C      1  0.4649540000000  0.5152090000000  0.5938560000000 1.0
C      1  0.4696500000000  0.5860290000000  0.5336470000000 1.0
C      1  0.5199370000000  0.5851020000000  0.4561550000000 1.0
C      1  0.4810130000000  0.4054490000000  0.4630490000000 1.0
C      1  0.4056840000000  0.5375130000000  0.4865120000000 1.0
C      1  0.5403450000000  0.5170160000000  0.5895350000000 1.0
C      1  0.5144110000000  0.4074990000000  0.4643720000000 1.0
C      1  0.5922900000000  0.4599310000000  0.4820670000000 1.0
C      1  0.4027660000000  0.4641780000000  0.5163580000000 1.0
C      1  0.6001150000000  0.5374750000000  0.5165840000000 1.0
C      1  0.4660440000000  0.4818520000000  0.5916090000000 1.0
C      1  0.5375060000000  0.4820800000000  0.4028100000000 1.0
C      1  0.4592330000000  0.5254150000000  0.4148240000000 1.0
C      1  0.4804290000000  0.5885350000000  0.4580360000000 1.0
C      1  0.5086070000000  0.5926170000000  0.5312050000000 1.0
C      1  0.4780190000000  0.4123300000000  0.5380710000000 1.0
C      1  0.5685800000000  0.5237040000000  0.4951350000000 1.0
C      1  0.5245260000000  0.4928890000000  0.5656220000000 1.0
C      1  0.4922870000000  0.5625190000000  0.5243550000000 1.0
C      1  0.4331930000000  0.4748690000000  0.4943870000000 1.0
C      1  0.5711550000000  0.4755000000000  0.5057900000000 1.0
C      1  0.4352920000000  0.5248430000000  0.5089900000000 1.0
C      1  0.4753370000000  0.5066520000000  0.5623620000000 1.0
C      1  0.5278560000000  0.5030030000000  0.4314220000000 1.0
C      1  0.4776050000000  0.4986480000000  0.4355000000000 1.0
C      1  0.5064380000000  0.4330290000000  0.5217100000000 1.0
C      1  0.4921580000000  0.4351420000000  0.4771260000000 1.0
C      1  0.5045880000000  0.5656630000000  0.4766250000000 1.0
C      1  0.5699790000000  0.5253440000000  0.5072910000000 1.0
C      1  0.5256310000000  0.4910240000000  0.4332260000000 1.0
C      1  0.4923460000000  0.5638480000000  0.4771270000000 1.0
C      1  0.4345500000000  0.4746360000000  0.5066750000000 1.0
C      1  0.5690850000000  0.4772920000000  0.4937480000000 1.0
C      1  0.4358200000000  0.5254970000000  0.4966500000000 1.0
C      1  0.4780660000000  0.5109250000000  0.4351860000000 1.0
C      1  0.5253210000000  0.5050550000000  0.5653300000000 1.0
C      1  0.4751950000000  0.4944820000000  0.5602580000000 1.0
C      1  0.5043760000000  0.4371170000000  0.4765210000000 1.0
C      1  0.4942960000000  0.4350490000000  0.5217000000000 1.0
C      1  0.5045760000000  0.5629960000000  0.5236080000000 1.0
C      1  0.5262710000000  0.5225940000000  0.4085140000000 1.0
C      1  0.5244740000000  0.4085740000000  0.5254470000000 1.0
C      1  0.4099520000000  0.5273710000000  0.5266950000000 1.0
C      1  0.4772380000000  0.4814310000000  0.4121300000000 1.0
C      1  0.5254270000000  0.4743050000000  0.5881400000000 1.0
C      1  0.4741760000000  0.5226590000000  0.5871470000000 1.0
C      1  0.4645140000000  0.5822470000000  0.5202420000000 1.0
C      1  0.5273990000000  0.5829750000000  0.4675470000000 1.0
C      1  0.4731200000000  0.4114620000000  0.4724440000000 1.0
C      1  0.5944510000000  0.4734090000000  0.5268230000000 1.0
C      1  0.4102710000000  0.4739880000000  0.4759320000000 1.0
C      1  0.5929330000000  0.5240910000000  0.4763180000000 1.0
C      1  0.5280550000000  0.5228190000000  0.5877930000000 1.0
C      1  0.5210920000000  0.4133230000000  0.4745760000000 1.0
C      1  0.4126130000000  0.5279970000000  0.4796780000000 1.0
C      1  0.4757020000000  0.4752680000000  0.5845800000000 1.0
C      1  0.5279260000000  0.4748360000000  0.4092890000000 1.0
C      1  0.4713050000000  0.5323160000000  0.4146410000000 1.0
C      1  0.4723360000000  0.5865470000000  0.4690810000000 1.0
C      1  0.5163940000000  0.5896790000000  0.5206710000000 1.0
C      1  0.4711650000000  0.4152650000000  0.5264190000000 1.0
C      1  0.5899410000000  0.4711480000000  0.4746130000000 1.0
C      1  0.4093520000000  0.4737210000000  0.5236310000000 1.0
C      1  0.5940030000000  0.5277760000000  0.5239240000000 1.0
C      1  0.4063130000000  0.4504530000000  0.5161870000000 1.0
C      1  0.4475050000000  0.5306430000000  0.4218090000000 1.0
C      1  0.5140380000000  0.4118220000000  0.4507810000000 1.0
C      1  0.5954540000000  0.5509340000000  0.5155400000000 1.0
C      1  0.4094860000000  0.5511700000000  0.4870430000000 1.0
C      1  0.5857350000000  0.4476720000000  0.4781110000000 1.0
C      1  0.5509580000000  0.4824700000000  0.4071780000000 1.0
C      1  0.4520680000000  0.4820020000000  0.5888170000000 1.0
C      1  0.5522170000000  0.5237880000000  0.5840310000000 1.0
C      1  0.4774230000000  0.5863220000000  0.4444020000000 1.0
C      1  0.5121170000000  0.5918010000000  0.5449710000000 1.0
C      1  0.4742950000000  0.4176760000000  0.5508360000000 1.0
C      1  0.4073420000000  0.4504030000000  0.4830290000000 1.0
C      1  0.4509960000000  0.5146460000000  0.5911260000000 1.0
C      1  0.5204320000000  0.4046460000000  0.5492990000000 1.0
C      1  0.5937020000000  0.5477860000000  0.4826120000000 1.0
C      1  0.4092790000000  0.5514690000000  0.5199950000000 1.0
C      1  0.5963130000000  0.4488010000000  0.5248360000000 1.0
C      1  0.5501290000000  0.4719080000000  0.5860460000000 1.0
C      1  0.4525700000000  0.4791610000000  0.4158420000000 1.0
C      1  0.5499820000000  0.5152260000000  0.4066330000000 1.0
C      1  0.4656330000000  0.5793230000000  0.5457040000000 1.0
C      1  0.5243050000000  0.5794990000000  0.4437280000000 1.0
C      1  0.4811540000000  0.4094110000000  0.4495210000000 1.0
C      1  0.5833720000000  0.5716910000000  0.5049330000000 1.0
C      1  0.5696140000000  0.5035950000000  0.5828130000000 1.0
C      1  0.5000270000000  0.5840420000000  0.5665170000000 1.0
C      1  0.4155290000000  0.4276250000000  0.5072120000000 1.0
C      1  0.5855830000000  0.4291020000000  0.4986920000000 1.0
C      1  0.4201910000000  0.5731640000000  0.4960330000000 1.0
C      1  0.4283000000000  0.4908330000000  0.5820670000000 1.0
C      1  0.5729920000000  0.4920610000000  0.4172830000000 1.0
C      1  0.4311400000000  0.5097320000000  0.4207540000000 1.0
C      1  0.4951880000000  0.4158150000000  0.5692280000000 1.0
C      1  0.5048570000000  0.4200120000000  0.4276360000000 1.0
C      1  0.4898390000000  0.5785700000000  0.4231710000000 1.0
C      1  0.5822060000000  0.5698760000000  0.4903950000000 1.0
C      1  0.5728330000000  0.5067180000000  0.4167000000000 1.0
C      1  0.5043950000000  0.5805600000000  0.4244210000000 1.0
C      1  0.4163090000000  0.4277940000000  0.4926030000000 1.0
C      1  0.5837380000000  0.4295260000000  0.5132270000000 1.0
C      1  0.4194300000000  0.5736400000000  0.5104760000000 1.0
C      1  0.4330140000000  0.4952520000000  0.4207760000000 1.0
C      1  0.5690020000000  0.4890040000000  0.5825770000000 1.0
C      1  0.4279400000000  0.5054920000000  0.5827020000000 1.0
C      1  0.4902540000000  0.4195490000000  0.4272440000000 1.0
C      1  0.5098370000000  0.4166210000000  0.5693100000000 1.0
C      1  0.4858110000000  0.5825110000000  0.5639920000000 1.0
C      1  0.4980930000000  0.4800270000000  0.4550360000000 1.0
C      1  0.4777010000000  0.4571490000000  0.4896030000000 1.0
C      1  0.4505900000000  0.4961520000000  0.4817190000000 1.0
C      1  0.5075120000000  0.5157630000000  0.4484390000000 1.0
C      1  0.4925560000000  0.5233880000000  0.5453980000000 1.0
C      1  0.5052250000000  0.4782310000000  0.5452740000000 1.0
C      1  0.5193000000000  0.5445060000000  0.4976100000000 1.0
C      1  0.4742610000000  0.5443260000000  0.5072160000000 1.0
C      1  0.5237150000000  0.4547900000000  0.5115190000000 1.0
C      1  0.5466760000000  0.5119800000000  0.4772200000000 1.0
C      1  0.4499240000000  0.5053210000000  0.5261600000000 1.0
C      1  0.5542880000000  0.4923120000000  0.5217880000000 1.0
C      1  0.4918240000000  0.4766140000000  0.5434580000000 1.0
C      1  0.4795120000000  0.4562950000000  0.5033590000000 1.0
C      1  0.4494900000000  0.4917790000000  0.5246090000000 1.0
C      1  0.5061440000000  0.5217830000000  0.5462490000000 1.0
C      1  0.4966750000000  0.5234420000000  0.4523370000000 1.0
C      1  0.5115470000000  0.4764580000000  0.4559550000000 1.0
C      1  0.5229260000000  0.5435800000000  0.5111650000000 1.0
C      1  0.4754070000000  0.5452870000000  0.4936120000000 1.0
C      1  0.5222820000000  0.4552160000000  0.4977570000000 1.0
C      1  0.5541790000000  0.5058680000000  0.5223260000000 1.0
C      1  0.4542230000000  0.5088790000000  0.4776860000000 1.0
C      1  0.5493420000000  0.4983680000000  0.4791980000000 1.0
C      1  0.4820030000000  0.5315060000000  0.4227310000000 1.0
C      1  0.5239680000000  0.4241410000000  0.4826700000000 1.0
C      1  0.4213730000000  0.4795690000000  0.5266460000000 1.0
C      1  0.5209040000000  0.4711910000000  0.4201510000000 1.0
C      1  0.4819300000000  0.4745410000000  0.5722460000000 1.0
C      1  0.5204110000000  0.5258480000000  0.5772040000000 1.0
C      1  0.4716620000000  0.5772600000000  0.4787420000000 1.0
C      1  0.5214390000000  0.5783930000000  0.5144990000000 1.0
C      1  0.4723350000000  0.4251080000000  0.5169440000000 1.0
C      1  0.5830210000000  0.5204790000000  0.5274480000000 1.0
C      1  0.4240230000000  0.5212220000000  0.4764650000000 1.0
C      1  0.5803460000000  0.4800980000000  0.4719860000000 1.0
C      1  0.4813880000000  0.5263090000000  0.5762190000000 1.0
C      1  0.5277630000000  0.4200350000000  0.5193120000000 1.0
C      1  0.4213120000000  0.4816420000000  0.4738050000000 1.0
C      1  0.5182110000000  0.4719890000000  0.5766620000000 1.0
C      1  0.4850350000000  0.4788100000000  0.4238090000000 1.0
C      1  0.5195980000000  0.5235080000000  0.4207360000000 1.0
C      1  0.4725860000000  0.5719940000000  0.5147890000000 1.0
C      1  0.5274020000000  0.5749930000000  0.4782520000000 1.0
C      1  0.4703100000000  0.4222660000000  0.4799480000000 1.0
C      1  0.5814250000000  0.5168060000000  0.4750750000000 1.0
C      1  0.4206650000000  0.5192210000000  0.5280600000000 1.0
C      1  0.5828100000000  0.4804950000000  0.5273380000000 1.0
C      1  0.4121430000000  0.5131460000000  0.5642670000000 1.0
C      1  0.5177810000000  0.5621290000000  0.4122810000000 1.0
C      1  0.5595130000000  0.4208550000000  0.5154250000000 1.0
C      1  0.5847950000000  0.4844190000000  0.5639830000000 1.0
C      1  0.4177610000000  0.4889190000000  0.4394190000000 1.0
C      1  0.5876310000000  0.5147090000000  0.4356610000000 1.0
C      1  0.4822000000000  0.4396160000000  0.4139730000000 1.0
C      1  0.5139280000000  0.4403710000000  0.5786260000000 1.0
C      1  0.4737080000000  0.5673310000000  0.5811750000000 1.0
C      1  0.4398460000000  0.5863610000000  0.5181130000000 1.0
C      1  0.5593090000000  0.5786550000000  0.4836070000000 1.0
C      1  0.4379110000000  0.4162570000000  0.4865410000000 1.0
C      1  0.4146250000000  0.5207670000000  0.4382700000000 1.0
C      1  0.5039410000000  0.5668380000000  0.5851410000000 1.0
C      1  0.5659770000000  0.4182890000000  0.4860190000000 1.0
C      1  0.5844180000000  0.4854960000000  0.4390430000000 1.0
C      1  0.4127300000000  0.4837760000000  0.5634230000000 1.0
C      1  0.5848540000000  0.5161700000000  0.5651300000000 1.0
C      1  0.4834350000000  0.4357990000000  0.5810830000000 1.0
C      1  0.5115220000000  0.4405230000000  0.4145830000000 1.0
C      1  0.4879750000000  0.5564230000000  0.4105620000000 1.0
C      1  0.4421520000000  0.5841530000000  0.4901230000000 1.0
C      1  0.5629830000000  0.5848980000000  0.5127530000000 1.0
C      1  0.4349180000000  0.4137220000000  0.5153450000000 1.0
C      1  0.4847370000000  0.5304160000000  0.4480250000000 1.0
C      1  0.5237690000000  0.4492920000000  0.4840490000000 1.0
C      1  0.4456780000000  0.4768250000000  0.5291320000000 1.0
C      1  0.5219350000000  0.4725310000000  0.4466020000000 1.0
C      1  0.4775290000000  0.4718330000000  0.5487310000000 1.0
C      1  0.5198850000000  0.5240380000000  0.5520100000000 1.0
C      1  0.4706020000000  0.5521220000000  0.4802320000000 1.0
C      1  0.5255410000000  0.5530970000000  0.5217580000000 1.0
C      1  0.4757010000000  0.4496870000000  0.5161350000000 1.0
C      1  0.5583330000000  0.5197890000000  0.5265080000000 1.0
C      1  0.4490180000000  0.5226450000000  0.4765970000000 1.0
C      1  0.5558900000000  0.4854130000000  0.4751160000000 1.0
C      1  0.4793470000000  0.5271150000000  0.5512820000000 1.0
C      1  0.5262140000000  0.4454220000000  0.5220440000000 1.0
C      1  0.4459580000000  0.4827770000000  0.4764890000000 1.0
C      1  0.5183210000000  0.4747010000000  0.5517400000000 1.0
C      1  0.4844480000000  0.4791770000000  0.4486690000000 1.0
C      1  0.5210000000000  0.5210080000000  0.4447060000000 1.0
C      1  0.4710870000000  0.5500950000000  0.5205280000000 1.0
C      1  0.5213350000000  0.5506140000000  0.4840610000000 1.0
C      1  0.4736040000000  0.4480630000000  0.4793540000000 1.0
C      1  0.5565080000000  0.5224450000000  0.4743030000000 1.0
C      1  0.4446380000000  0.5190620000000  0.5316500000000 1.0
C      1  0.5585590000000  0.4784220000000  0.5255600000000 1.0
END
