TITL C-855863-9781-186 -1.4006086030628 1000000 -4150.79251969931 0 0 600 (C1) n - 1
REM
REM in /scratch/bkarasulu/Larger-Clusters
REM
REM
REM
REM
REM
REM ./C.cell (28d0ae7d613b82ecca3ae8fabf5dfced)
REM
REM compiler GCC version 9.2.1 20190827 (Red Hat 9.2.1-1)
REM options -cpp -mtune=generic -march=x86-64 -g -O0 -fpre-include=/usr/include/finclude/math-vector-fortran.h
REM seed 738496569 -706540702 -1294535413 -123536931 75242518 685690627 -1155252268 1667006102 -743518804 906836654 34351725 767072658 -2135825481 898142781 -326521015 1145521040 1231563695 -741288881 1815160947 -1863176471 1377278819 1153141686 903900296 -1985631207 258298737 -1035733960 1008745753 1047093421 1384760141 -1170890332 -1256945005 -2126849192 1715898799
REM
CELL 1.54180  100.00000  100.00000  100.00000   90.00000   90.00000   90.00000
LATT -1
SFAC C  
C      1  0.5519030000000  0.5283730000000  0.5132700000000 1.0
C      1  0.5298290000000  0.5105010000000  0.5517960000000 1.0
C      1  0.5099370000000  0.5480780000000  0.5275780000000 1.0
C      1  0.4500760000000  0.4702550000000  0.5100290000000 1.0
C      1  0.5492780000000  0.4676790000000  0.4895940000000 1.0
C      1  0.4492520000000  0.5312220000000  0.4905610000000 1.0
C      1  0.4693820000000  0.4872980000000  0.5526240000000 1.0
C      1  0.5280470000000  0.4897300000000  0.4513430000000 1.0
C      1  0.4719010000000  0.5130890000000  0.4523000000000 1.0
C      1  0.4903270000000  0.4501440000000  0.5305110000000 1.0
C      1  0.5090470000000  0.4484970000000  0.4714380000000 1.0
C      1  0.4868730000000  0.5561810000000  0.4700460000000 1.0
C      1  0.5273950000000  0.5479410000000  0.5100950000000 1.0
C      1  0.5124470000000  0.5283020000000  0.5515810000000 1.0
C      1  0.5518770000000  0.5107740000000  0.5308510000000 1.0
C      1  0.4704910000000  0.4470830000000  0.5145090000000 1.0
C      1  0.4691730000000  0.5566190000000  0.4878150000000 1.0
C      1  0.5273610000000  0.4470150000000  0.4891830000000 1.0
C      1  0.4869770000000  0.4696740000000  0.5529180000000 1.0
C      1  0.4885810000000  0.5309370000000  0.4506530000000 1.0
C      1  0.5106380000000  0.4725440000000  0.4499880000000 1.0
C      1  0.4473560000000  0.4870340000000  0.5284980000000 1.0
C      1  0.4509860000000  0.5131010000000  0.4739900000000 1.0
C      1  0.5514960000000  0.4847880000000  0.4711960000000 1.0
C      1  0.4696750000000  0.4390930000000  0.5265940000000 1.0
C      1  0.4404220000000  0.5221340000000  0.4704420000000 1.0
C      1  0.5206510000000  0.4712220000000  0.4396550000000 1.0
C      1  0.5298350000000  0.5583700000000  0.5200050000000 1.0
C      1  0.4666700000000  0.5691120000000  0.4780650000000 1.0
C      1  0.5281290000000  0.4376220000000  0.4790230000000 1.0
C      1  0.5590110000000  0.4724440000000  0.4688310000000 1.0
C      1  0.4378750000000  0.4760970000000  0.5294230000000 1.0
C      1  0.5600420000000  0.5221450000000  0.5350630000000 1.0
C      1  0.4785150000000  0.5317850000000  0.4401230000000 1.0
C      1  0.5239080000000  0.5316680000000  0.5602750000000 1.0
C      1  0.4761670000000  0.4666120000000  0.5623160000000 1.0
C      1  0.4364420000000  0.4672660000000  0.5166750000000 1.0
C      1  0.5195470000000  0.4385630000000  0.4688940000000 1.0
C      1  0.4691480000000  0.5218370000000  0.4411400000000 1.0
C      1  0.5601510000000  0.5318660000000  0.5250730000000 1.0
C      1  0.5577580000000  0.4630750000000  0.4790770000000 1.0
C      1  0.4393870000000  0.5322320000000  0.4796190000000 1.0
C      1  0.4783100000000  0.5688680000000  0.4665590000000 1.0
C      1  0.4807790000000  0.4406950000000  0.5345320000000 1.0
C      1  0.5198360000000  0.5584620000000  0.5299800000000 1.0
C      1  0.5305590000000  0.4806450000000  0.4405590000000 1.0
C      1  0.5336600000000  0.5217460000000  0.5602980000000 1.0
C      1  0.4664490000000  0.4766280000000  0.5623110000000 1.0
C      1  0.5148760000000  0.4381630000000  0.4453030000000 1.0
C      1  0.4336010000000  0.4414320000000  0.5166270000000 1.0
C      1  0.4470360000000  0.5127500000000  0.4389720000000 1.0
C      1  0.4825200000000  0.5626430000000  0.4437720000000 1.0
C      1  0.5102570000000  0.5656930000000  0.5523970000000 1.0
C      1  0.4905970000000  0.4310500000000  0.5559690000000 1.0
C      1  0.5636880000000  0.5599350000000  0.5116380000000 1.0
C      1  0.4353320000000  0.5553040000000  0.4859760000000 1.0
C      1  0.5665430000000  0.4414500000000  0.4876010000000 1.0
C      1  0.5545050000000  0.4889850000000  0.4371380000000 1.0
C      1  0.4337830000000  0.4863530000000  0.5701320000000 1.0
C      1  0.5650650000000  0.5126280000000  0.5753610000000 1.0
C      1  0.4390070000000  0.5130780000000  0.4480100000000 1.0
C      1  0.4398430000000  0.4308020000000  0.5187290000000 1.0
C      1  0.5141220000000  0.4475360000000  0.4377850000000 1.0
C      1  0.5647170000000  0.4870250000000  0.4437240000000 1.0
C      1  0.5741520000000  0.5130710000000  0.5670060000000 1.0
C      1  0.4261050000000  0.4843650000000  0.5606560000000 1.0
C      1  0.5525490000000  0.5651730000000  0.5108770000000 1.0
C      1  0.5590510000000  0.4321660000000  0.4847130000000 1.0
C      1  0.4437990000000  0.5634190000000  0.4821610000000 1.0
C      1  0.4864000000000  0.5542510000000  0.4356300000000 1.0
C      1  0.4895360000000  0.4371870000000  0.5666190000000 1.0
C      1  0.5108340000000  0.5602890000000  0.5634670000000 1.0
C      1  0.4850670000000  0.4198150000000  0.5080980000000 1.0
C      1  0.4255510000000  0.5048820000000  0.4857790000000 1.0
C      1  0.5018840000000  0.4872020000000  0.4233970000000 1.0
C      1  0.5153670000000  0.5738280000000  0.5054320000000 1.0
C      1  0.4876040000000  0.5816770000000  0.4985760000000 1.0
C      1  0.5151440000000  0.4195600000000  0.4960860000000 1.0
C      1  0.5840610000000  0.4961320000000  0.4823780000000 1.0
C      1  0.4202270000000  0.4972050000000  0.5124630000000 1.0
C      1  0.5847340000000  0.5033080000000  0.5219750000000 1.0
C      1  0.4942570000000  0.5154230000000  0.4273770000000 1.0
C      1  0.5014620000000  0.5195450000000  0.5837780000000 1.0
C      1  0.4981110000000  0.4792530000000  0.5845330000000 1.0
C      1  0.4231010000000  0.4844570000000  0.5038120000000 1.0
C      1  0.5038270000000  0.4210990000000  0.4853020000000 1.0
C      1  0.4841460000000  0.5055850000000  0.4275690000000 1.0
C      1  0.5845320000000  0.5196930000000  0.5020950000000 1.0
C      1  0.5913060000000  0.4757130000000  0.5046340000000 1.0
C      1  0.4257830000000  0.5160850000000  0.4944220000000 1.0
C      1  0.4985300000000  0.5812800000000  0.4876930000000 1.0
C      1  0.4947490000000  0.4210620000000  0.5207730000000 1.0
C      1  0.5054130000000  0.5740810000000  0.5152250000000 1.0
C      1  0.5130920000000  0.4983630000000  0.4234430000000 1.0
C      1  0.5195840000000  0.4999080000000  0.5837720000000 1.0
C      1  0.4793240000000  0.4982500000000  0.5840050000000 1.0
C      1  0.4614500000000  0.5089400000000  0.4205890000000 1.0
C      1  0.5093780000000  0.4208060000000  0.4590770000000 1.0
C      1  0.4259900000000  0.4703640000000  0.5070200000000 1.0
C      1  0.5388360000000  0.4927220000000  0.4216410000000 1.0
C      1  0.4532620000000  0.4978150000000  0.5788720000000 1.0
C      1  0.5452580000000  0.5002800000000  0.5793720000000 1.0
C      1  0.4889540000000  0.5790910000000  0.4649950000000 1.0
C      1  0.5077480000000  0.5804480000000  0.5375300000000 1.0
C      1  0.4933390000000  0.4220580000000  0.5358670000000 1.0
C      1  0.5791490000000  0.5451970000000  0.5039640000000 1.0
C      1  0.4184910000000  0.5392490000000  0.4889900000000 1.0
C      1  0.5783460000000  0.4590860000000  0.4934530000000 1.0
C      1  0.5090920000000  0.4618450000000  0.4216850000000 1.0
C      1  0.4206840000000  0.5094420000000  0.4619770000000 1.0
C      1  0.4582940000000  0.4205630000000  0.5103160000000 1.0
C      1  0.4898290000000  0.5379940000000  0.4191920000000 1.0
C      1  0.4971980000000  0.4535550000000  0.5800420000000 1.0
C      1  0.5027610000000  0.5451760000000  0.5784040000000 1.0
C      1  0.5792380000000  0.4958930000000  0.4578070000000 1.0
C      1  0.5803530000000  0.5016610000000  0.5472900000000 1.0
C      1  0.4200080000000  0.4931230000000  0.5397470000000 1.0
C      1  0.5377820000000  0.5799780000000  0.5078820000000 1.0
C      1  0.5415660000000  0.4198510000000  0.4902840000000 1.0
C      1  0.4651890000000  0.5798570000000  0.4880980000000 1.0
C      1  0.4510380000000  0.5601510000000  0.5329730000000 1.0
C      1  0.5577440000000  0.5393560000000  0.4500330000000 1.0
C      1  0.5404870000000  0.4457610000000  0.5596680000000 1.0
C      1  0.5508470000000  0.4366230000000  0.5365860000000 1.0
C      1  0.4534680000000  0.4430180000000  0.4643110000000 1.0
C      1  0.5457370000000  0.5600500000000  0.4618290000000 1.0
C      1  0.4425800000000  0.4646910000000  0.4527000000000 1.0
C      1  0.5626770000000  0.4567250000000  0.5494730000000 1.0
C      1  0.4390730000000  0.5397640000000  0.5454190000000 1.0
C      1  0.4600120000000  0.5517090000000  0.5569650000000 1.0
C      1  0.5344590000000  0.5487870000000  0.4402490000000 1.0
C      1  0.4645860000000  0.4532780000000  0.4421780000000 1.0
C      1  0.5621620000000  0.4468470000000  0.5375390000000 1.0
C      1  0.5340290000000  0.5592540000000  0.4513940000000 1.0
C      1  0.4488260000000  0.5410500000000  0.5571900000000 1.0
C      1  0.4397910000000  0.5497740000000  0.5333760000000 1.0
C      1  0.4427930000000  0.4540960000000  0.4640200000000 1.0
C      1  0.5576620000000  0.5504690000000  0.4609040000000 1.0
C      1  0.4645790000000  0.4425950000000  0.4531750000000 1.0
C      1  0.4613000000000  0.5609850000000  0.5448790000000 1.0
C      1  0.5397600000000  0.4362810000000  0.5476760000000 1.0
C      1  0.5519170000000  0.4562000000000  0.5603450000000 1.0
C      1  0.5462760000000  0.5384640000000  0.4398730000000 1.0
C      1  0.4534530000000  0.4644520000000  0.4419190000000 1.0
C      1  0.5510550000000  0.5128660000000  0.5749690000000 1.0
C      1  0.5182700000000  0.5693670000000  0.5404260000000 1.0
C      1  0.5722400000000  0.5500550000000  0.5155650000000 1.0
C      1  0.4472260000000  0.4856760000000  0.5739890000000 1.0
C      1  0.5424590000000  0.4819520000000  0.4314900000000 1.0
C      1  0.4585950000000  0.5193900000000  0.4310110000000 1.0
C      1  0.4829740000000  0.4291620000000  0.5437590000000 1.0
C      1  0.5205260000000  0.4305270000000  0.4563630000000 1.0
C      1  0.4728890000000  0.5672020000000  0.4525300000000 1.0
C      1  0.4319720000000  0.4540000000000  0.5222030000000 1.0
C      1  0.5700270000000  0.4544290000000  0.4818550000000 1.0
C      1  0.4287720000000  0.5425530000000  0.4790380000000 1.0
C      1  0.5144890000000  0.5501970000000  0.5718660000000 1.0
C      1  0.5749090000000  0.5137370000000  0.5530190000000 1.0
C      1  0.5404870000000  0.5690710000000  0.5185960000000 1.0
C      1  0.4855950000000  0.4479870000000  0.5740400000000 1.0
C      1  0.4792570000000  0.5415100000000  0.4289500000000 1.0
C      1  0.5205300000000  0.4591460000000  0.4310780000000 1.0
C      1  0.4242830000000  0.4814540000000  0.5471510000000 1.0
C      1  0.4309990000000  0.5199840000000  0.4592290000000 1.0
C      1  0.5736940000000  0.4833600000000  0.4536240000000 1.0
C      1  0.4517180000000  0.4246370000000  0.5222130000000 1.0
C      1  0.4527260000000  0.5674560000000  0.4724580000000 1.0
C      1  0.5486620000000  0.4250590000000  0.4790520000000 1.0
C      1  0.4730940000000  0.4518770000000  0.4184340000000 1.0
C      1  0.4529080000000  0.4194440000000  0.4734180000000 1.0
C      1  0.4187900000000  0.4734220000000  0.4512420000000 1.0
C      1  0.5254860000000  0.5486160000000  0.4167660000000 1.0
C      1  0.4668030000000  0.5544150000000  0.5811220000000 1.0
C      1  0.5327010000000  0.4438560000000  0.5836060000000 1.0
C      1  0.5455930000000  0.5836150000000  0.4708140000000 1.0
C      1  0.4512210000000  0.5833070000000  0.5230100000000 1.0
C      1  0.5504220000000  0.4135480000000  0.5261140000000 1.0
C      1  0.5817590000000  0.5320270000000  0.4480840000000 1.0
C      1  0.4155380000000  0.5301740000000  0.5459260000000 1.0
C      1  0.5865990000000  0.4648560000000  0.5516540000000 1.0
C      1  0.4523770000000  0.4724030000000  0.4180770000000 1.0
C      1  0.4193150000000  0.4536950000000  0.4732090000000 1.0
C      1  0.4726960000000  0.4187380000000  0.4528590000000 1.0
C      1  0.5469330000000  0.5290330000000  0.4164210000000 1.0
C      1  0.5535810000000  0.4637690000000  0.5844020000000 1.0
C      1  0.4462860000000  0.5343360000000  0.5814720000000 1.0
C      1  0.5817810000000  0.5532350000000  0.4677600000000 1.0
C      1  0.5858420000000  0.4470350000000  0.5287500000000 1.0
C      1  0.4164630000000  0.5495400000000  0.5244450000000 1.0
C      1  0.5240560000000  0.5824820000000  0.4511930000000 1.0
C      1  0.5296040000000  0.4131760000000  0.5462710000000 1.0
C      1  0.4705890000000  0.5844150000000  0.5446640000000 1.0
C      1  0.5529410000000  0.5793750000000  0.4300660000000 1.0
C      1  0.5804120000000  0.4245050000000  0.5564180000000 1.0
C      1  0.4276880000000  0.5632070000000  0.5735290000000 1.0
C      1  0.4432000000000  0.4227790000000  0.4337510000000 1.0
C      1  0.5598390000000  0.4150420000000  0.5660500000000 1.0
C      1  0.4391410000000  0.5816180000000  0.5620910000000 1.0
C      1  0.4192020000000  0.5712590000000  0.5520670000000 1.0
C      1  0.5745070000000  0.5715550000000  0.4386090000000 1.0
C      1  0.4235180000000  0.4331330000000  0.4439390000000 1.0
C      1  0.5713670000000  0.4332890000000  0.5775460000000 1.0
C      1  0.4332550000000  0.4426160000000  0.4234550000000 1.0
C      1  0.5642970000000  0.5603450000000  0.4194420000000 1.0
C      1  0.5747240000000  0.5612930000000  0.4286640000000 1.0
C      1  0.4296880000000  0.5806910000000  0.5514870000000 1.0
C      1  0.5608750000000  0.4236350000000  0.5771250000000 1.0
C      1  0.4233850000000  0.4427890000000  0.4334640000000 1.0
C      1  0.4187630000000  0.5619190000000  0.5628420000000 1.0
C      1  0.5810380000000  0.4335620000000  0.5674480000000 1.0
C      1  0.5699230000000  0.4151220000000  0.5559130000000 1.0
C      1  0.5634330000000  0.5801800000000  0.4396400000000 1.0
C      1  0.4332650000000  0.4230910000000  0.4440230000000 1.0
C      1  0.4378640000000  0.5732870000000  0.5733130000000 1.0
C      1  0.4433370000000  0.4325780000000  0.4237260000000 1.0
C      1  0.5535920000000  0.5698040000000  0.4197270000000 1.0
C      1  0.5178550000000  0.4236120000000  0.5475380000000 1.0
C      1  0.4260050000000  0.5518740000000  0.5124660000000 1.0
C      1  0.5501810000000  0.5173220000000  0.4260730000000 1.0
C      1  0.4824190000000  0.5749040000000  0.5482210000000 1.0
C      1  0.5120600000000  0.5720010000000  0.4511180000000 1.0
C      1  0.4847770000000  0.4277710000000  0.4492210000000 1.0
C      1  0.5762660000000  0.4464210000000  0.5164580000000 1.0
C      1  0.4295060000000  0.4551670000000  0.4852750000000 1.0
C      1  0.5727810000000  0.5560540000000  0.4802400000000 1.0
C      1  0.4493050000000  0.4847490000000  0.4271340000000 1.0
C      1  0.5566660000000  0.4761060000000  0.5753530000000 1.0
C      1  0.4433360000000  0.5219780000000  0.5725250000000 1.0
C      1  0.4253980000000  0.5185370000000  0.5494890000000 1.0
C      1  0.5531230000000  0.4239960000000  0.5148950000000 1.0
C      1  0.5134370000000  0.5511460000000  0.4262460000000 1.0
C      1  0.5770650000000  0.4763730000000  0.5559550000000 1.0
C      1  0.5726130000000  0.5194710000000  0.4458840000000 1.0
C      1  0.4281790000000  0.4855370000000  0.4495990000000 1.0
C      1  0.4512010000000  0.5727760000000  0.5110330000000 1.0
C      1  0.4498160000000  0.4293950000000  0.4851050000000 1.0
C      1  0.5490280000000  0.5742590000000  0.4828280000000 1.0
C      1  0.4853160000000  0.4495370000000  0.4276290000000 1.0
C      1  0.4793750000000  0.5567510000000  0.5721700000000 1.0
C      1  0.5205300000000  0.4417260000000  0.5741190000000 1.0
C      1  0.4964840000000  0.4784350000000  0.5581920000000 1.0
C      1  0.4788610000000  0.5567500000000  0.4981360000000 1.0
C      1  0.5574790000000  0.4949380000000  0.4791540000000 1.0
C      1  0.5031610000000  0.5195950000000  0.5573710000000 1.0
C      1  0.4987510000000  0.5212460000000  0.4508900000000 1.0
C      1  0.5003940000000  0.4820380000000  0.4492200000000 1.0
C      1  0.5186980000000  0.4445760000000  0.5000380000000 1.0
C      1  0.4802230000000  0.4448990000000  0.5042760000000 1.0
C      1  0.5182770000000  0.5500100000000  0.4994300000000 1.0
C      1  0.4498710000000  0.5023150000000  0.4823890000000 1.0
C      1  0.5581770000000  0.5024750000000  0.5215120000000 1.0
C      1  0.4458080000000  0.4984810000000  0.5200630000000 1.0
C      1  0.4788660000000  0.4961290000000  0.5576180000000 1.0
C      1  0.5558710000000  0.4771630000000  0.4975800000000 1.0
C      1  0.4971740000000  0.5563690000000  0.4796600000000 1.0
C      1  0.5206290000000  0.5018040000000  0.5574760000000 1.0
C      1  0.5192450000000  0.5005100000000  0.4496040000000 1.0
C      1  0.4800980000000  0.5019050000000  0.4514960000000 1.0
C      1  0.4487150000000  0.5214360000000  0.5008390000000 1.0
C      1  0.4492010000000  0.4809120000000  0.5009970000000 1.0
C      1  0.5580430000000  0.5201490000000  0.5035620000000 1.0
C      1  0.4990950000000  0.4461770000000  0.4814040000000 1.0
C      1  0.4990620000000  0.5503930000000  0.5187700000000 1.0
C      1  0.5005120000000  0.4464130000000  0.5215200000000 1.0
C      1  0.4194890000000  0.4559920000000  0.4377480000000 1.0
C      1  0.4566060000000  0.4372320000000  0.4199010000000 1.0
C      1  0.4381420000000  0.4195690000000  0.4572680000000 1.0
C      1  0.5795520000000  0.5483470000000  0.4333850000000 1.0
C      1  0.4155890000000  0.5481640000000  0.5589870000000 1.0
C      1  0.5853840000000  0.4469210000000  0.5639410000000 1.0
C      1  0.5408320000000  0.5641270000000  0.4161290000000 1.0
C      1  0.4505880000000  0.5689050000000  0.5787630000000 1.0
C      1  0.5482440000000  0.4286510000000  0.5820560000000 1.0
C      1  0.5591560000000  0.5834450000000  0.4531730000000 1.0
C      1  0.4352500000000  0.5831210000000  0.5383480000000 1.0
C      1  0.5648970000000  0.4121890000000  0.5427140000000 1.0
C      1  0.4563710000000  0.4189810000000  0.4384250000000 1.0
C      1  0.4379830000000  0.4557440000000  0.4192420000000 1.0
C      1  0.4200090000000  0.4383230000000  0.4570560000000 1.0
C      1  0.5397310000000  0.5820250000000  0.4354530000000 1.0
C      1  0.5462870000000  0.4125260000000  0.5612090000000 1.0
C      1  0.4527970000000  0.5845880000000  0.5579770000000 1.0
C      1  0.5603270000000  0.5466170000000  0.4164100000000 1.0
C      1  0.5672840000000  0.4465050000000  0.5823650000000 1.0
C      1  0.4321410000000  0.5505030000000  0.5788440000000 1.0
C      1  0.5797230000000  0.5672020000000  0.4513190000000 1.0
C      1  0.5845430000000  0.4303060000000  0.5436200000000 1.0
C      1  0.4157100000000  0.5654590000000  0.5393580000000 1.0
C      1  0.4965960000000  0.5414740000000  0.5078900000000 1.0
C      1  0.5497920000000  0.5092280000000  0.4996270000000 1.0
C      1  0.5099980000000  0.4983810000000  0.5486600000000 1.0
C      1  0.5006380000000  0.4564490000000  0.5114720000000 1.0
C      1  0.4984630000000  0.4564240000000  0.4912650000000 1.0
C      1  0.4972240000000  0.5443020000000  0.4876360000000 1.0
C      1  0.4594420000000  0.4909430000000  0.5016260000000 1.0
C      1  0.5487650000000  0.4886730000000  0.5008980000000 1.0
C      1  0.4590610000000  0.5117150000000  0.5027510000000 1.0
C      1  0.4894220000000  0.4992440000000  0.5487110000000 1.0
C      1  0.5100140000000  0.5017740000000  0.4605820000000 1.0
C      1  0.4897900000000  0.5008650000000  0.4618890000000 1.0
C      1  0.5498240000000  0.4987410000000  0.5105060000000 1.0
C      1  0.5070820000000  0.5413130000000  0.4973730000000 1.0
C      1  0.4994230000000  0.5090030000000  0.5485950000000 1.0
C      1  0.4576170000000  0.5011270000000  0.5121250000000 1.0
C      1  0.4603840000000  0.5013090000000  0.4921380000000 1.0
C      1  0.5491000000000  0.4993280000000  0.4898930000000 1.0
C      1  0.4892940000000  0.4559960000000  0.5020180000000 1.0
C      1  0.4867530000000  0.5445570000000  0.4981900000000 1.0
C      1  0.5098700000000  0.4559910000000  0.5008670000000 1.0
C      1  0.5000260000000  0.4886160000000  0.5489240000000 1.0
C      1  0.5000690000000  0.5117840000000  0.4615210000000 1.0
C      1  0.4998350000000  0.4911180000000  0.4604710000000 1.0
C      1  0.4637270000000  0.5920630000000  0.5555630000000 1.0
C      1  0.5883120000000  0.5650440000000  0.4612450000000 1.0
C      1  0.5651240000000  0.4567930000000  0.5907750000000 1.0
C      1  0.5350300000000  0.4058520000000  0.5582160000000 1.0
C      1  0.4665710000000  0.4109670000000  0.4415040000000 1.0
C      1  0.5288950000000  0.5891880000000  0.4386910000000 1.0
C      1  0.4133120000000  0.4409640000000  0.4683380000000 1.0
C      1  0.5923310000000  0.4342930000000  0.5334750000000 1.0
C      1  0.4083970000000  0.5613200000000  0.5290940000000 1.0
C      1  0.4343950000000  0.5408620000000  0.5878430000000 1.0
C      1  0.5581210000000  0.5355960000000  0.4090320000000 1.0
C      1  0.4409450000000  0.4658890000000  0.4109780000000 1.0
C      1  0.5937120000000  0.4572860000000  0.5622820000000 1.0
C      1  0.5566230000000  0.5910550000000  0.4639670000000 1.0
C      1  0.4604740000000  0.5665100000000  0.5874050000000 1.0
C      1  0.4082040000000  0.5370720000000  0.5569630000000 1.0
C      1  0.4121130000000  0.4669400000000  0.4395990000000 1.0
C      1  0.5880340000000  0.5383000000000  0.4360050000000 1.0
C      1  0.4411460000000  0.4118840000000  0.4678190000000 1.0
C      1  0.4387140000000  0.5901990000000  0.5275410000000 1.0
C      1  0.5616970000000  0.4054390000000  0.5316780000000 1.0
C      1  0.5383610000000  0.4317440000000  0.5904310000000 1.0
C      1  0.5304520000000  0.5602670000000  0.4087640000000 1.0
C      1  0.4669790000000  0.4399370000000  0.4118450000000 1.0
C      1  0.5511140000000  0.4873860000000  0.5815810000000 1.0
C      1  0.4939100000000  0.5806270000000  0.5419150000000 1.0
C      1  0.5803100000000  0.5512410000000  0.4911350000000 1.0
C      1  0.4481610000000  0.5110240000000  0.5797680000000 1.0
C      1  0.5442540000000  0.5058840000000  0.4199450000000 1.0
C      1  0.4560770000000  0.4955880000000  0.4207150000000 1.0
C      1  0.5065160000000  0.4184250000000  0.5404500000000 1.0
C      1  0.4958960000000  0.4204450000000  0.4541910000000 1.0
C      1  0.5010740000000  0.5788710000000  0.4571210000000 1.0
C      1  0.4230290000000  0.4633050000000  0.4950810000000 1.0
C      1  0.5820780000000  0.4544460000000  0.5062700000000 1.0
C      1  0.4190100000000  0.5450910000000  0.5020240000000 1.0
C      1  0.4900050000000  0.5512770000000  0.5795760000000 1.0
C      1  0.5831060000000  0.4884220000000  0.5520830000000 1.0
C      1  0.5424210000000  0.5799990000000  0.4941360000000 1.0
C      1  0.5098860000000  0.4475450000000  0.5813600000000 1.0
C      1  0.5029070000000  0.5438400000000  0.4198240000000 1.0
C      1  0.4962040000000  0.4557380000000  0.4207520000000 1.0
C      1  0.4196160000000  0.5070240000000  0.5435900000000 1.0
C      1  0.4212800000000  0.4961730000000  0.4563830000000 1.0
C      1  0.5793230000000  0.5088710000000  0.4520740000000 1.0
C      1  0.4555180000000  0.4225880000000  0.4962620000000 1.0
C      1  0.4570610000000  0.5798570000000  0.5000620000000 1.0
C      1  0.5464550000000  0.4186540000000  0.5036530000000 1.0
C      1  0.5505670000000  0.5374210000000  0.5618550000000 1.0
C      1  0.5413300000000  0.5585220000000  0.5523550000000 1.0
C      1  0.5617500000000  0.5481620000000  0.5410490000000 1.0
C      1  0.4504090000000  0.4609500000000  0.5633390000000 1.0
C      1  0.5544030000000  0.4589550000000  0.4377610000000 1.0
C      1  0.4432450000000  0.5378940000000  0.4342740000000 1.0
C      1  0.4596510000000  0.4383300000000  0.5543070000000 1.0
C      1  0.5442900000000  0.4375450000000  0.4464120000000 1.0
C      1  0.4567710000000  0.5645230000000  0.4348520000000 1.0
C      1  0.4394840000000  0.4487370000000  0.5450800000000 1.0
C      1  0.5649680000000  0.4477220000000  0.4572300000000 1.0
C      1  0.4253650000000  0.5582850000000  0.4598200000000 1.0
C      1  0.5400430000000  0.5480020000000  0.5620150000000 1.0
C      1  0.5612740000000  0.5376330000000  0.5516280000000 1.0
C      1  0.5519630000000  0.5585490000000  0.5419850000000 1.0
C      1  0.4606000000000  0.4497700000000  0.5639070000000 1.0
C      1  0.4605400000000  0.5576150000000  0.4251780000000 1.0
C      1  0.5441300000000  0.4476990000000  0.4368750000000 1.0
C      1  0.4416610000000  0.4608420000000  0.5525240000000 1.0
C      1  0.4345210000000  0.5379770000000  0.4431240000000 1.0
C      1  0.5636000000000  0.4593060000000  0.4481230000000 1.0
C      1  0.4496790000000  0.4391390000000  0.5440110000000 1.0
C      1  0.4352680000000  0.5648950000000  0.4561290000000 1.0
C      1  0.5549650000000  0.4375040000000  0.4568860000000 1.0
C      1  0.5325070000000  0.5106400000000  0.4128400000000 1.0
C      1  0.5122760000000  0.4091100000000  0.5310740000000 1.0
C      1  0.4127640000000  0.5337670000000  0.5080950000000 1.0
C      1  0.4675690000000  0.4897810000000  0.4145340000000 1.0
C      1  0.5388130000000  0.4817720000000  0.5878650000000 1.0
C      1  0.4602610000000  0.5164100000000  0.5867320000000 1.0
C      1  0.4888180000000  0.5870840000000  0.5302870000000 1.0
C      1  0.5075080000000  0.5887710000000  0.4660640000000 1.0
C      1  0.4909820000000  0.4130360000000  0.4657720000000 1.0
C      1  0.5904400000000  0.4643300000000  0.5132640000000 1.0
C      1  0.4129020000000  0.4707290000000  0.4880670000000 1.0
C      1  0.5881110000000  0.5398530000000  0.4855890000000 1.0
C      1  0.5090830000000  0.5324480000000  0.4138590000000 1.0
C      1  0.4123120000000  0.5111890000000  0.5316750000000 1.0
C      1  0.5351670000000  0.4109250000000  0.5082780000000 1.0
C      1  0.4905160000000  0.4670290000000  0.4135290000000 1.0
C      1  0.4841740000000  0.5396810000000  0.5868170000000 1.0
C      1  0.5156280000000  0.4592680000000  0.5884350000000 1.0
C      1  0.5900790000000  0.4843320000000  0.5394410000000 1.0
C      1  0.5865260000000  0.5150600000000  0.4637100000000 1.0
C      1  0.4136130000000  0.4903480000000  0.4667700000000 1.0
C      1  0.4659860000000  0.5897130000000  0.5065610000000 1.0
C      1  0.4668970000000  0.4146690000000  0.4919350000000 1.0
C      1  0.5308900000000  0.5864000000000  0.4887930000000 1.0
C      1  0.5182340000000  0.5593100000000  0.4501990000000 1.0
C      1  0.5631810000000  0.4464040000000  0.5221030000000 1.0
C      1  0.4472340000000  0.5260690000000  0.5591600000000 1.0
C      1  0.4799710000000  0.4411810000000  0.4509900000000 1.0
C      1  0.5242110000000  0.4360930000000  0.5494090000000 1.0
C      1  0.4766130000000  0.5618170000000  0.5477220000000 1.0
C      1  0.4392430000000  0.5507370000000  0.5177860000000 1.0
C      1  0.5594730000000  0.5524220000000  0.4761240000000 1.0
C      1  0.4424380000000  0.4536540000000  0.4795700000000 1.0
C      1  0.5537110000000  0.4712770000000  0.5619390000000 1.0
C      1  0.4511300000000  0.4797690000000  0.4404340000000 1.0
C      1  0.5488710000000  0.5231580000000  0.4391870000000 1.0
C      1  0.5593050000000  0.5240800000000  0.4485910000000 1.0
C      1  0.4501320000000  0.5600010000000  0.5170730000000 1.0
C      1  0.5251290000000  0.4445030000000  0.5608100000000 1.0
C      1  0.4413540000000  0.4799650000000  0.4505900000000 1.0
C      1  0.4384290000000  0.5246690000000  0.5482810000000 1.0
C      1  0.5637870000000  0.4716170000000  0.5522310000000 1.0
C      1  0.5528740000000  0.4367860000000  0.5211470000000 1.0
C      1  0.5484400000000  0.5611210000000  0.4771520000000 1.0
C      1  0.4512920000000  0.4424760000000  0.4795050000000 1.0
C      1  0.4752580000000  0.5532030000000  0.5588150000000 1.0
C      1  0.4800260000000  0.4510900000000  0.4408910000000 1.0
C      1  0.5189780000000  0.5501230000000  0.4393830000000 1.0
C      1  0.4120570000000  0.4666340000000  0.4745090000000 1.0
C      1  0.4666040000000  0.4758470000000  0.4135690000000 1.0
C      1  0.4768440000000  0.4139100000000  0.4670620000000 1.0
C      1  0.5877700000000  0.5396990000000  0.4714180000000 1.0
C      1  0.4118580000000  0.5349970000000  0.5218570000000 1.0
C      1  0.5912980000000  0.4613290000000  0.5272330000000 1.0
C      1  0.5329610000000  0.5247420000000  0.4119420000000 1.0
C      1  0.4599500000000  0.5306580000000  0.5870440000000 1.0
C      1  0.5397180000000  0.4676240000000  0.5891430000000 1.0
C      1  0.5215040000000  0.5886130000000  0.4649270000000 1.0
C      1  0.4748030000000  0.5884930000000  0.5305390000000 1.0
C      1  0.5266010000000  0.4078630000000  0.5325740000000 1.0
C      1  0.4673420000000  0.4145830000000  0.4775690000000 1.0
C      1  0.4764470000000  0.4659980000000  0.4132680000000 1.0
C      1  0.4126170000000  0.4764190000000  0.4646320000000 1.0
C      1  0.5314400000000  0.5878100000000  0.4747970000000 1.0
C      1  0.5362710000000  0.4088490000000  0.5224080000000 1.0
C      1  0.4649720000000  0.5894060000000  0.5205660000000 1.0
C      1  0.5227890000000  0.5341390000000  0.4123870000000 1.0
C      1  0.5296650000000  0.4578710000000  0.5891440000000 1.0
C      1  0.4699900000000  0.5405110000000  0.5869680000000 1.0
C      1  0.5873010000000  0.5291830000000  0.4620620000000 1.0
C      1  0.5912850000000  0.4700590000000  0.5382510000000 1.0
C      1  0.4113490000000  0.5254570000000  0.5319240000000 1.0
C      1  0.4785300000000  0.5442030000000  0.4700180000000 1.0
C      1  0.5362780000000  0.4703380000000  0.4834120000000 1.0
C      1  0.4702940000000  0.4811100000000  0.5392640000000 1.0
C      1  0.5169460000000  0.4612210000000  0.4720860000000 1.0
C      1  0.4819880000000  0.4624090000000  0.5293070000000 1.0
C      1  0.5174180000000  0.5353620000000  0.5274190000000 1.0
C      1  0.4615490000000  0.5327130000000  0.4827970000000 1.0
C      1  0.5380140000000  0.5262000000000  0.5183880000000 1.0
C      1  0.4613610000000  0.4702570000000  0.5194660000000 1.0
C      1  0.5280360000000  0.5160820000000  0.5380490000000 1.0
C      1  0.4719870000000  0.5217100000000  0.4641040000000 1.0
C      1  0.5275740000000  0.4814840000000  0.4637450000000 1.0
C      1  0.5374170000000  0.4804560000000  0.4732740000000 1.0
C      1  0.4686720000000  0.5442930000000  0.4800620000000 1.0
C      1  0.4808840000000  0.4715250000000  0.5394290000000 1.0
C      1  0.4629020000000  0.5215570000000  0.4741490000000 1.0
C      1  0.4606060000000  0.4803530000000  0.5293340000000 1.0
C      1  0.5380750000000  0.5161970000000  0.5284820000000 1.0
C      1  0.5267170000000  0.4606140000000  0.4823300000000 1.0
C      1  0.5274620000000  0.5353200000000  0.5175910000000 1.0
C      1  0.4711680000000  0.4607370000000  0.5203570000000 1.0
C      1  0.5179120000000  0.5261140000000  0.5378080000000 1.0
C      1  0.5177560000000  0.4713690000000  0.4626910000000 1.0
C      1  0.4806740000000  0.5327000000000  0.4627370000000 1.0
C      1  0.4543650000000  0.4741350000000  0.5686550000000 1.0
C      1  0.4592240000000  0.5675960000000  0.4484620000000 1.0
C      1  0.5728990000000  0.4551810000000  0.4666470000000 1.0
C      1  0.5455920000000  0.5241890000000  0.5672320000000 1.0
C      1  0.4549420000000  0.5344160000000  0.4278340000000 1.0
C      1  0.5452950000000  0.4672010000000  0.4297770000000 1.0
C      1  0.5358460000000  0.4290960000000  0.4551160000000 1.0
C      1  0.4674360000000  0.4285500000000  0.5463950000000 1.0
C      1  0.5336330000000  0.5681600000000  0.5440150000000 1.0
C      1  0.4254320000000  0.5448470000000  0.4643260000000 1.0
C      1  0.5670270000000  0.5436090000000  0.5278490000000 1.0
C      1  0.4307490000000  0.4551920000000  0.5358840000000 1.0
C      1  0.4734630000000  0.4544890000000  0.5688860000000 1.0
C      1  0.5690180000000  0.4691950000000  0.4591010000000 1.0
C      1  0.4488860000000  0.5676540000000  0.4587210000000 1.0
C      1  0.5267570000000  0.5435620000000  0.5669680000000 1.0
C      1  0.5354560000000  0.4567770000000  0.4292710000000 1.0
C      1  0.4646690000000  0.5440600000000  0.4250910000000 1.0
C      1  0.4281080000000  0.5349000000000  0.4549530000000 1.0
C      1  0.4332090000000  0.4698990000000  0.5419290000000 1.0
C      1  0.5671930000000  0.5246430000000  0.5469170000000 1.0
C      1  0.5463730000000  0.4286980000000  0.4651590000000 1.0
C      1  0.5438070000000  0.5681310000000  0.5340530000000 1.0
C      1  0.4589760000000  0.4317730000000  0.5335660000000 1.0
C      1  0.4960030000000  0.5874800000000  0.4746560000000 1.0
C      1  0.5812500000000  0.4729400000000  0.4942560000000 1.0
C      1  0.4661910000000  0.5034610000000  0.5844660000000 1.0
C      1  0.5042730000000  0.4150500000000  0.4717820000000 1.0
C      1  0.5029420000000  0.4079840000000  0.5209220000000 1.0
C      1  0.5029720000000  0.5860360000000  0.5237300000000 1.0
C      1  0.4143100000000  0.5256790000000  0.4953960000000 1.0
C      1  0.5856260000000  0.5329170000000  0.4979830000000 1.0
C      1  0.4112580000000  0.4827100000000  0.4947700000000 1.0
C      1  0.5324050000000  0.4942370000000  0.5842950000000 1.0
C      1  0.4752800000000  0.5028650000000  0.4157760000000 1.0
C      1  0.5259360000000  0.4978250000000  0.4162890000000 1.0
C      1  0.5853940000000  0.5021470000000  0.4699020000000 1.0
C      1  0.4748240000000  0.5881280000000  0.4952980000000 1.0
C      1  0.5031840000000  0.4662180000000  0.5857020000000 1.0
C      1  0.4147230000000  0.5036160000000  0.4750310000000 1.0
C      1  0.4146820000000  0.4975630000000  0.5263530000000 1.0
C      1  0.5857640000000  0.4971310000000  0.5344230000000 1.0
C      1  0.5286250000000  0.4140220000000  0.4952120000000 1.0
C      1  0.5240760000000  0.5855680000000  0.5028120000000 1.0
C      1  0.4712880000000  0.4148170000000  0.5064890000000 1.0
C      1  0.4966940000000  0.5327690000000  0.5844160000000 1.0
C      1  0.5029700000000  0.4743140000000  0.4163440000000 1.0
C      1  0.4963700000000  0.5243040000000  0.4152920000000 1.0
C      1  0.5717750000000  0.5062380000000  0.5167330000000 1.0
C      1  0.5055800000000  0.5143270000000  0.5710540000000 1.0
C      1  0.5140800000000  0.5633070000000  0.4957920000000 1.0
C      1  0.4343160000000  0.5045730000000  0.5134740000000 1.0
C      1  0.5707120000000  0.4918380000000  0.4854290000000 1.0
C      1  0.4372720000000  0.4967050000000  0.4866430000000 1.0
C      1  0.4940920000000  0.4841950000000  0.5716790000000 1.0
C      1  0.4947900000000  0.4874690000000  0.4372510000000 1.0
C      1  0.5030560000000  0.5151310000000  0.4386540000000 1.0
C      1  0.4863380000000  0.4329500000000  0.4990870000000 1.0
C      1  0.5133800000000  0.4322230000000  0.5056020000000 1.0
C      1  0.4858070000000  0.5673850000000  0.5049880000000 1.0
C      1  0.4955440000000  0.5637230000000  0.5144580000000 1.0
C      1  0.5150910000000  0.5044510000000  0.5710920000000 1.0
C      1  0.5716830000000  0.5151400000000  0.5063660000000 1.0
C      1  0.5041320000000  0.4330980000000  0.5164910000000 1.0
C      1  0.5043160000000  0.5668950000000  0.4863570000000 1.0
C      1  0.4953780000000  0.4334910000000  0.4879090000000 1.0
C      1  0.4844010000000  0.4939410000000  0.5713790000000 1.0
C      1  0.4847450000000  0.4970140000000  0.4389320000000 1.0
C      1  0.5129480000000  0.5052760000000  0.4373370000000 1.0
C      1  0.4368300000000  0.4865180000000  0.4961360000000 1.0
C      1  0.4361580000000  0.5153370000000  0.5044510000000 1.0
C      1  0.5696390000000  0.4810160000000  0.4936980000000 1.0
C      1  0.4447180000000  0.5459070000000  0.5710240000000 1.0
C      1  0.5366350000000  0.5738360000000  0.4482320000000 1.0
C      1  0.5765280000000  0.4432630000000  0.5408100000000 1.0
C      1  0.5551720000000  0.4515440000000  0.5744190000000 1.0
C      1  0.4501830000000  0.4602480000000  0.4277000000000 1.0
C      1  0.5486310000000  0.5420170000000  0.4253220000000 1.0
C      1  0.4606010000000  0.4282170000000  0.4503430000000 1.0
C      1  0.5425660000000  0.4215370000000  0.5493400000000 1.0
C      1  0.4577500000000  0.5756100000000  0.5465350000000 1.0
C      1  0.4252280000000  0.5531450000000  0.5365270000000 1.0
C      1  0.5715570000000  0.5546190000000  0.4561600000000 1.0
C      1  0.4283290000000  0.4508940000000  0.4606350000000 1.0
C      1  0.5444530000000  0.4414660000000  0.5737740000000 1.0
C      1  0.5717060000000  0.5439230000000  0.4459820000000 1.0
C      1  0.4480020000000  0.5747770000000  0.5355000000000 1.0
C      1  0.4552540000000  0.5562150000000  0.5708100000000 1.0
C      1  0.4606780000000  0.4498110000000  0.4279070000000 1.0
C      1  0.5377380000000  0.5519830000000  0.4256890000000 1.0
C      1  0.4281380000000  0.4608180000000  0.4497540000000 1.0
C      1  0.4244730000000  0.5432740000000  0.5474280000000 1.0
C      1  0.5769770000000  0.4524600000000  0.5522990000000 1.0
C      1  0.5531370000000  0.4218090000000  0.5390720000000 1.0
C      1  0.5475680000000  0.5746110000000  0.4581010000000 1.0
C      1  0.4503850000000  0.4284800000000  0.4609640000000 1.0
C      1  0.4961140000000  0.5133110000000  0.4057190000000 1.0
C      1  0.5095600000000  0.4046540000000  0.4980320000000 1.0
C      1  0.4075990000000  0.5032750000000  0.5043170000000 1.0
C      1  0.4964530000000  0.4934300000000  0.4100060000000 1.0
C      1  0.4993310000000  0.4893210000000  0.5943340000000 1.0
C      1  0.4998200000000  0.5097520000000  0.5938230000000 1.0
C      1  0.4942200000000  0.5947690000000  0.5040180000000 1.0
C      1  0.5146850000000  0.5965220000000  0.5041720000000 1.0
C      1  0.4901970000000  0.4069750000000  0.5017560000000 1.0
C      1  0.5949900000000  0.5009550000000  0.5124610000000 1.0
C      1  0.4032270000000  0.5054420000000  0.4842880000000 1.0
C      1  0.5935090000000  0.4978710000000  0.4927880000000 1.0
C      1  0.5064190000000  0.5035390000000  0.4097580000000 1.0
C      1  0.4049420000000  0.5146620000000  0.4950540000000 1.0
C      1  0.5013520000000  0.4009070000000  0.5090590000000 1.0
C      1  0.4861830000000  0.5032300000000  0.4060790000000 1.0
C      1  0.4893170000000  0.4996750000000  0.5939870000000 1.0
C      1  0.5097880000000  0.4993330000000  0.5939740000000 1.0
C      1  0.5959440000000  0.4888620000000  0.5043330000000 1.0
C      1  0.5941640000000  0.5095720000000  0.5011270000000 1.0
C      1  0.4034710000000  0.4942180000000  0.4939180000000 1.0
C      1  0.5046060000000  0.5968280000000  0.5142420000000 1.0
C      1  0.4978160000000  0.4079630000000  0.4900910000000 1.0
C      1  0.5044070000000  0.5944340000000  0.4938980000000 1.0
END
