TITL C-855863-9781-98 1.53062149997232 1000000 -2579.55171176162 0 0 380 (C1) n - 1
REM
REM in /scratch/bkarasulu/Larger-Clusters
REM
REM
REM
REM
REM
REM ./C.cell (28d0ae7d613b82ecca3ae8fabf5dfced)
REM
REM compiler GCC version 9.2.1 20190827 (Red Hat 9.2.1-1)
REM options -cpp -mtune=generic -march=x86-64 -g -O0 -fpre-include=/usr/include/finclude/math-vector-fortran.h
REM seed 1247941093 -569002002 -1760072808 -1237261073 628964048 -2108384874 761886766 -1423740780 1700973411 1232199698 1759627219 2062000895 1753842478 -336559453 1874576635 351697039 936570216 -272972109 -508141329 -104805392 1564050775 1348113836 1061856186 -150843434 -1997973426 840593319 -1778631482 1615786934 -581868340 527413453 -1759171357 -1181981998 1510412539
REM
CELL 1.54180  100.00000  100.00000  100.00000   90.00000   90.00000   90.00000
LATT -1
SFAC C  
C      1  0.5148490000000  0.5816150000000  0.4928060000000 1.0
C      1  0.4943660000000  0.5152640000000  0.5949370000000 1.0
C      1  0.5886270000000  0.4923530000000  0.5160580000000 1.0
C      1  0.4928900000000  0.5883550000000  0.5026010000000 1.0
C      1  0.5054600000000  0.4100760000000  0.5005920000000 1.0
C      1  0.4848600000000  0.4136960000000  0.4861380000000 1.0
C      1  0.5005240000000  0.5118670000000  0.4055110000000 1.0
C      1  0.4946400000000  0.4898700000000  0.4022620000000 1.0
C      1  0.5063690000000  0.4951020000000  0.5914860000000 1.0
C      1  0.4147920000000  0.4943930000000  0.4938820000000 1.0
C      1  0.5873660000000  0.5064450000000  0.4812860000000 1.0
C      1  0.4207680000000  0.5041770000000  0.5158610000000 1.0
C      1  0.5144790000000  0.4137640000000  0.4900540000000 1.0
C      1  0.4954350000000  0.5010660000000  0.5955690000000 1.0
C      1  0.5863740000000  0.5071980000000  0.5164170000000 1.0
C      1  0.4918030000000  0.4093400000000  0.4971870000000 1.0
C      1  0.5070280000000  0.5871900000000  0.5029580000000 1.0
C      1  0.4847520000000  0.5833390000000  0.4924420000000 1.0
C      1  0.5052000000000  0.4995490000000  0.4011640000000 1.0
C      1  0.4884660000000  0.5166510000000  0.4106410000000 1.0
C      1  0.5041830000000  0.5235030000000  0.5892640000000 1.0
C      1  0.4188490000000  0.5053520000000  0.4861560000000 1.0
C      1  0.5880960000000  0.4912680000000  0.4808380000000 1.0
C      1  0.4157550000000  0.4939430000000  0.5079530000000 1.0
C      1  0.4948840000000  0.4903070000000  0.4663810000000 1.0
C      1  0.4784840000000  0.4998720000000  0.5021030000000 1.0
C      1  0.4866230000000  0.4682650000000  0.4917920000000 1.0
C      1  0.5001590000000  0.4913420000000  0.5438680000000 1.0
C      1  0.4979190000000  0.5165810000000  0.5459430000000 1.0
C      1  0.5056370000000  0.5134960000000  0.4680950000000 1.0
C      1  0.5141210000000  0.5060220000000  0.5020060000000 1.0
C      1  0.4719180000000  0.5136550000000  0.5188370000000 1.0
C      1  0.5360250000000  0.5100140000000  0.4911380000000 1.0
C      1  0.5102730000000  0.4697980000000  0.5005820000000 1.0
C      1  0.4968480000000  0.5365690000000  0.5014610000000 1.0
C      1  0.5155560000000  0.5375010000000  0.4875730000000 1.0
C      1  0.4994470000000  0.5029110000000  0.4671710000000 1.0
C      1  0.4740630000000  0.5062090000000  0.4919240000000 1.0
C      1  0.4874650000000  0.5352080000000  0.4930720000000 1.0
C      1  0.4970190000000  0.5028870000000  0.5466410000000 1.0
C      1  0.5014320000000  0.4790250000000  0.5381590000000 1.0
C      1  0.5028150000000  0.4804660000000  0.4684210000000 1.0
C      1  0.5128360000000  0.5108860000000  0.5140610000000 1.0
C      1  0.4777840000000  0.5022700000000  0.5153790000000 1.0
C      1  0.5245320000000  0.5052280000000  0.4942800000000 1.0
C      1  0.5100720000000  0.5385120000000  0.4988720000000 1.0
C      1  0.4975440000000  0.4704510000000  0.4975290000000 1.0
C      1  0.5204950000000  0.4674280000000  0.4936720000000 1.0
C      1  0.4623300000000  0.5732930000000  0.5389030000000 1.0
C      1  0.5319710000000  0.4609180000000  0.5624770000000 1.0
C      1  0.5722310000000  0.5395560000000  0.4610750000000 1.0
C      1  0.5379600000000  0.5712710000000  0.4607330000000 1.0
C      1  0.4659940000000  0.4279070000000  0.4596630000000 1.0
C      1  0.5276510000000  0.4376400000000  0.5327640000000 1.0
C      1  0.4622400000000  0.4627990000000  0.4327700000000 1.0
C      1  0.5371380000000  0.5368760000000  0.4302990000000 1.0
C      1  0.4589270000000  0.5407410000000  0.5723210000000 1.0
C      1  0.4308900000000  0.5390590000000  0.5391980000000 1.0
C      1  0.5656650000000  0.4610120000000  0.5310320000000 1.0
C      1  0.4284100000000  0.4513560000000  0.4636940000000 1.0
C      1  0.4606720000000  0.4292860000000  0.5397150000000 1.0
C      1  0.5289170000000  0.5332100000000  0.5692370000000 1.0
C      1  0.5747600000000  0.4591030000000  0.4624340000000 1.0
C      1  0.5390760000000  0.4283120000000  0.4603860000000 1.0
C      1  0.4647090000000  0.5693330000000  0.4615170000000 1.0
C      1  0.5323760000000  0.5635690000000  0.5377570000000 1.0
C      1  0.4614360000000  0.5370480000000  0.4310180000000 1.0
C      1  0.5367830000000  0.4624840000000  0.4326070000000 1.0
C      1  0.4618350000000  0.4674380000000  0.5679410000000 1.0
C      1  0.4308830000000  0.4661030000000  0.5331660000000 1.0
C      1  0.5628710000000  0.5354430000000  0.5319540000000 1.0
C      1  0.4332530000000  0.5374590000000  0.4686810000000 1.0
C      1  0.5308810000000  0.4493470000000  0.4637290000000 1.0
C      1  0.4648600000000  0.5256810000000  0.4513520000000 1.0
C      1  0.4507130000000  0.4619650000000  0.5217010000000 1.0
C      1  0.4741660000000  0.4458260000000  0.5377880000000 1.0
C      1  0.5170450000000  0.5471910000000  0.5436020000000 1.0
C      1  0.4763560000000  0.5499330000000  0.4627200000000 1.0
C      1  0.5357640000000  0.5151580000000  0.5559780000000 1.0
C      1  0.4663080000000  0.4753290000000  0.5479640000000 1.0
C      1  0.5465420000000  0.4758490000000  0.4499040000000 1.0
C      1  0.5557490000000  0.4588650000000  0.4742020000000 1.0
C      1  0.4530810000000  0.5343180000000  0.4778230000000 1.0
C      1  0.5405860000000  0.5336390000000  0.5242080000000 1.0
C      1  0.5270060000000  0.5514700000000  0.4606340000000 1.0
C      1  0.4524240000000  0.4741930000000  0.4514840000000 1.0
C      1  0.4510640000000  0.5435120000000  0.5264270000000 1.0
C      1  0.4750380000000  0.5564770000000  0.5479460000000 1.0
C      1  0.5186860000000  0.4610720000000  0.5333190000000 1.0
C      1  0.4750480000000  0.4491030000000  0.4618510000000 1.0
C      1  0.5477960000000  0.4763390000000  0.5539700000000 1.0
C      1  0.4623290000000  0.5291240000000  0.5520820000000 1.0
C      1  0.5357830000000  0.5276130000000  0.4516520000000 1.0
C      1  0.5525160000000  0.5365870000000  0.4720820000000 1.0
C      1  0.4469810000000  0.4537610000000  0.4762910000000 1.0
C      1  0.5460440000000  0.4653450000000  0.5173830000000 1.0
C      1  0.5385010000000  0.4758020000000  0.5164570000000 1.0
C      1  0.5164100000000  0.5474880000000  0.4658370000000 1.0
C      1  0.4737710000000  0.5242900000000  0.5497770000000 1.0
C      1  0.4536450000000  0.4604040000000  0.4845670000000 1.0
C      1  0.5504230000000  0.5281310000000  0.4811510000000 1.0
C      1  0.4584050000000  0.5356570000000  0.5199400000000 1.0
C      1  0.4862860000000  0.5511890000000  0.5471010000000 1.0
C      1  0.5148440000000  0.4739860000000  0.5350620000000 1.0
C      1  0.4792550000000  0.4559440000000  0.4713370000000 1.0
C      1  0.5262300000000  0.5227360000000  0.4578540000000 1.0
C      1  0.4548590000000  0.4804480000000  0.4624060000000 1.0
C      1  0.5377630000000  0.4868330000000  0.5559500000000 1.0
C      1  0.5325360000000  0.5261600000000  0.5182650000000 1.0
C      1  0.5272780000000  0.4567040000000  0.4729930000000 1.0
C      1  0.4775130000000  0.4769410000000  0.5426980000000 1.0
C      1  0.4561090000000  0.5244230000000  0.4855710000000 1.0
C      1  0.5524830000000  0.4646590000000  0.4850460000000 1.0
C      1  0.4616990000000  0.4636710000000  0.5152590000000 1.0
C      1  0.4842190000000  0.4500310000000  0.5313880000000 1.0
C      1  0.5077890000000  0.5376170000000  0.5436760000000 1.0
C      1  0.4845210000000  0.5464950000000  0.4716680000000 1.0
C      1  0.5452770000000  0.4822210000000  0.4610400000000 1.0
C      1  0.4711130000000  0.5230280000000  0.4617600000000 1.0
C      1  0.5308590000000  0.5081650000000  0.5443900000000 1.0
C      1  0.4455710000000  0.4174580000000  0.4637390000000 1.0
C      1  0.4640180000000  0.4397660000000  0.4253900000000 1.0
C      1  0.4233700000000  0.4621000000000  0.4560740000000 1.0
C      1  0.5506850000000  0.4272150000000  0.5355770000000 1.0
C      1  0.4394820000000  0.5801400000000  0.5339310000000 1.0
C      1  0.5567940000000  0.5684700000000  0.4789720000000 1.0
C      1  0.5314530000000  0.4356170000000  0.5673180000000 1.0
C      1  0.4593260000000  0.5636070000000  0.5813100000000 1.0
C      1  0.5188580000000  0.5567540000000  0.4320620000000 1.0
C      1  0.5606430000000  0.4782130000000  0.5493900000000 1.0
C      1  0.4221540000000  0.5444720000000  0.5551300000000 1.0
C      1  0.5677470000000  0.5209590000000  0.4421870000000 1.0
C      1  0.4447880000000  0.5666140000000  0.4785240000000 1.0
C      1  0.4799680000000  0.5565510000000  0.4312120000000 1.0
C      1  0.4311530000000  0.5237170000000  0.4458660000000 1.0
C      1  0.5557450000000  0.5710240000000  0.5367560000000 1.0
C      1  0.4440370000000  0.4302800000000  0.5194650000000 1.0
C      1  0.5573950000000  0.4286160000000  0.4793900000000 1.0
C      1  0.5342030000000  0.5556560000000  0.5744700000000 1.0
C      1  0.4747070000000  0.4446800000000  0.5707760000000 1.0
C      1  0.5214450000000  0.4398680000000  0.4320250000000 1.0
C      1  0.5718840000000  0.5334140000000  0.5537660000000 1.0
C      1  0.4315100000000  0.4813010000000  0.5542750000000 1.0
C      1  0.5816760000000  0.4648310000000  0.4404630000000 1.0
C      1  0.5102120000000  0.5477090000000  0.5803610000000 1.0
C      1  0.5740820000000  0.5125090000000  0.5406060000000 1.0
C      1  0.5434920000000  0.5700650000000  0.5151000000000 1.0
C      1  0.4857740000000  0.5404010000000  0.4210140000000 1.0
C      1  0.5133150000000  0.4565030000000  0.4247330000000 1.0
C      1  0.4873210000000  0.4605790000000  0.5728920000000 1.0
C      1  0.4237180000000  0.5139280000000  0.4619620000000 1.0
C      1  0.5796420000000  0.4851430000000  0.4547320000000 1.0
C      1  0.4252680000000  0.4926210000000  0.5387270000000 1.0
C      1  0.4601630000000  0.5764460000000  0.4866630000000 1.0
C      1  0.5397040000000  0.4206890000000  0.4860680000000 1.0
C      1  0.4615440000000  0.4208760000000  0.5139680000000 1.0
C      1  0.5119850000000  0.4508120000000  0.5688780000000 1.0
C      1  0.5780140000000  0.4832250000000  0.5391950000000 1.0
C      1  0.5409910000000  0.4256920000000  0.5138840000000 1.0
C      1  0.4854150000000  0.4522630000000  0.4255610000000 1.0
C      1  0.5137090000000  0.5416130000000  0.4201620000000 1.0
C      1  0.4811160000000  0.5516790000000  0.5816810000000 1.0
C      1  0.4208670000000  0.4876340000000  0.4524710000000 1.0
C      1  0.5791440000000  0.5142010000000  0.4570200000000 1.0
C      1  0.4260450000000  0.5183190000000  0.5503290000000 1.0
C      1  0.4592400000000  0.4208520000000  0.4851370000000 1.0
C      1  0.5394650000000  0.5751850000000  0.4870900000000 1.0
C      1  0.4542680000000  0.5766130000000  0.5142770000000 1.0
C      1  0.5397900000000  0.4293490000000  0.5283080000000 1.0
C      1  0.5261890000000  0.5456520000000  0.4266010000000 1.0
C      1  0.4266400000000  0.5326270000000  0.5522470000000 1.0
C      1  0.4569810000000  0.4210560000000  0.4697540000000 1.0
C      1  0.5448160000000  0.5734220000000  0.4733290000000 1.0
C      1  0.4516180000000  0.5771250000000  0.5292750000000 1.0
C      1  0.4661720000000  0.5523610000000  0.5786900000000 1.0
C      1  0.5262800000000  0.4479050000000  0.5660310000000 1.0
C      1  0.4703910000000  0.4515570000000  0.4269260000000 1.0
C      1  0.5741820000000  0.5274310000000  0.4531160000000 1.0
C      1  0.4216490000000  0.4736320000000  0.4522790000000 1.0
C      1  0.5694650000000  0.4710590000000  0.5402320000000 1.0
C      1  0.5444240000000  0.5683460000000  0.5301430000000 1.0
C      1  0.5265150000000  0.4531070000000  0.4291080000000 1.0
C      1  0.4281280000000  0.4782190000000  0.5407300000000 1.0
C      1  0.4566260000000  0.5720750000000  0.4730900000000 1.0
C      1  0.5455740000000  0.4241430000000  0.4728330000000 1.0
C      1  0.4552810000000  0.4255370000000  0.5267720000000 1.0
C      1  0.4725510000000  0.4587060000000  0.5720820000000 1.0
C      1  0.5245110000000  0.5459900000000  0.5752030000000 1.0
C      1  0.4729380000000  0.5449030000000  0.4267140000000 1.0
C      1  0.5791580000000  0.4698160000000  0.4525540000000 1.0
C      1  0.4285000000000  0.5274770000000  0.4594250000000 1.0
C      1  0.5709410000000  0.5274180000000  0.5420260000000 1.0
C      1  0.5876800000000  0.5138910000000  0.4924160000000 1.0
C      1  0.4936020000000  0.5954290000000  0.5161480000000 1.0
C      1  0.5152810000000  0.5016300000000  0.5832340000000 1.0
C      1  0.4226250000000  0.5164420000000  0.5082960000000 1.0
C      1  0.5907500000000  0.4850450000000  0.5049420000000 1.0
C      1  0.4077790000000  0.4810190000000  0.4945750000000 1.0
C      1  0.5064250000000  0.5801590000000  0.4815080000000 1.0
C      1  0.4938330000000  0.4158650000000  0.4752430000000 1.0
C      1  0.4997040000000  0.4091480000000  0.5143970000000 1.0
C      1  0.4833310000000  0.4944650000000  0.4070420000000 1.0
C      1  0.5125500000000  0.5191180000000  0.4074480000000 1.0
C      1  0.4804580000000  0.5135750000000  0.6000440000000 1.0
C      1  0.5908560000000  0.4845830000000  0.4922560000000 1.0
C      1  0.4859630000000  0.4112670000000  0.5100220000000 1.0
C      1  0.5151700000000  0.5162940000000  0.5839670000000 1.0
C      1  0.4082640000000  0.4804930000000  0.5077960000000 1.0
C      1  0.5871130000000  0.5146050000000  0.5051450000000 1.0
C      1  0.4221260000000  0.5158820000000  0.4945050000000 1.0
C      1  0.5080150000000  0.4156240000000  0.4772170000000 1.0
C      1  0.4933180000000  0.5806350000000  0.4814830000000 1.0
C      1  0.5067270000000  0.5938840000000  0.5166370000000 1.0
C      1  0.4787320000000  0.5064110000000  0.4105860000000 1.0
C      1  0.5194940000000  0.5075860000000  0.4020710000000 1.0
C      1  0.4802980000000  0.5001630000000  0.5999210000000 1.0
C      1  0.5793160000000  0.5420050000000  0.4725350000000 1.0
C      1  0.4744090000000  0.5798230000000  0.5392330000000 1.0
C      1  0.5238520000000  0.4711700000000  0.5681220000000 1.0
C      1  0.4264900000000  0.5289930000000  0.5294270000000 1.0
C      1  0.5738160000000  0.4557190000000  0.5212590000000 1.0
C      1  0.4227740000000  0.4479560000000  0.4758450000000 1.0
C      1  0.5260000000000  0.5775800000000  0.4593920000000 1.0
C      1  0.4783130000000  0.4232700000000  0.4574020000000 1.0
C      1  0.5162990000000  0.4304960000000  0.5346080000000 1.0
C      1  0.4623170000000  0.4752750000000  0.4271010000000 1.0
C      1  0.5371590000000  0.5245870000000  0.4242360000000 1.0
C      1  0.4578710000000  0.5287420000000  0.5786760000000 1.0
C      1  0.5815260000000  0.4557530000000  0.4739010000000 1.0
C      1  0.4712620000000  0.4217870000000  0.5439170000000 1.0
C      1  0.5251450000000  0.5209210000000  0.5751130000000 1.0
C      1  0.4237380000000  0.4612510000000  0.5227650000000 1.0
C      1  0.5686440000000  0.5376700000000  0.5199100000000 1.0
C      1  0.4277510000000  0.5385650000000  0.4810570000000 1.0
C      1  0.5268160000000  0.4230380000000  0.4610290000000 1.0
C      1  0.4762380000000  0.5761770000000  0.4594650000000 1.0
C      1  0.5219810000000  0.5722950000000  0.5393120000000 1.0
C      1  0.4593480000000  0.5250750000000  0.4249370000000 1.0
C      1  0.5352850000000  0.4746640000000  0.4264720000000 1.0
C      1  0.4606420000000  0.4794970000000  0.5738790000000 1.0
C      1  0.5287040000000  0.5778410000000  0.4958860000000 1.0
C      1  0.4878640000000  0.5409340000000  0.5875580000000 1.0
C      1  0.5838080000000  0.4915990000000  0.5298750000000 1.0
C      1  0.4660940000000  0.5810380000000  0.5086050000000 1.0
C      1  0.5303120000000  0.4198910000000  0.5074130000000 1.0
C      1  0.4714160000000  0.4170480000000  0.4917160000000 1.0
C      1  0.5073740000000  0.5310500000000  0.4141340000000 1.0
C      1  0.4920590000000  0.4639520000000  0.4214040000000 1.0
C      1  0.5105420000000  0.4650100000000  0.5706970000000 1.0
C      1  0.4176580000000  0.4920010000000  0.4651860000000 1.0
C      1  0.5838070000000  0.5063090000000  0.4671380000000 1.0
C      1  0.4248850000000  0.5166220000000  0.5362830000000 1.0
C      1  0.5282360000000  0.4173780000000  0.4938390000000 1.0
C      1  0.4975300000000  0.4695310000000  0.5724680000000 1.0
C      1  0.5813620000000  0.5059720000000  0.5302750000000 1.0
C      1  0.4724680000000  0.4162590000000  0.5066720000000 1.0
C      1  0.5321100000000  0.5756120000000  0.5093000000000 1.0
C      1  0.4705170000000  0.5807940000000  0.4953390000000 1.0
C      1  0.5047690000000  0.4664240000000  0.4206530000000 1.0
C      1  0.4927020000000  0.5300520000000  0.4153140000000 1.0
C      1  0.5013480000000  0.5374110000000  0.5863830000000 1.0
C      1  0.4197690000000  0.5042190000000  0.4714500000000 1.0
C      1  0.5840030000000  0.4919080000000  0.4664870000000 1.0
C      1  0.4234580000000  0.5037980000000  0.5301440000000 1.0
C      1  0.4941250000000  0.4415530000000  0.4291180000000 1.0
C      1  0.4239890000000  0.4975230000000  0.4430560000000 1.0
C      1  0.4485390000000  0.4248740000000  0.4932680000000 1.0
C      1  0.5015680000000  0.4417770000000  0.5684070000000 1.0
C      1  0.4905730000000  0.5619710000000  0.5788310000000 1.0
C      1  0.5065040000000  0.5526720000000  0.4259740000000 1.0
C      1  0.5690740000000  0.4901740000000  0.5486150000000 1.0
C      1  0.4282100000000  0.5076970000000  0.5584850000000 1.0
C      1  0.5729490000000  0.5074430000000  0.4456510000000 1.0
C      1  0.5522980000000  0.4283600000000  0.5058760000000 1.0
C      1  0.4448350000000  0.5715520000000  0.5051290000000 1.0
C      1  0.5517950000000  0.5697310000000  0.4926960000000 1.0
C      1  0.4926210000000  0.5522810000000  0.4260000000000 1.0
C      1  0.4262520000000  0.5101480000000  0.4478490000000 1.0
C      1  0.4475180000000  0.5712840000000  0.4919450000000 1.0
C      1  0.5030310000000  0.5596910000000  0.5783570000000 1.0
C      1  0.4892230000000  0.4461820000000  0.5713030000000 1.0
C      1  0.5076750000000  0.4433130000000  0.4288800000000 1.0
C      1  0.5677900000000  0.5035080000000  0.5491150000000 1.0
C      1  0.4283460000000  0.4952530000000  0.5528850000000 1.0
C      1  0.5749860000000  0.4941550000000  0.4447310000000 1.0
C      1  0.5536650000000  0.5673070000000  0.5059280000000 1.0
C      1  0.4497730000000  0.4257150000000  0.5066530000000 1.0
C      1  0.5516490000000  0.4259450000000  0.4925660000000 1.0
C      1  0.5414620000000  0.4734700000000  0.4827340000000 1.0
C      1  0.4828330000000  0.5350580000000  0.4802130000000 1.0
C      1  0.4885370000000  0.4733050000000  0.5351270000000 1.0
C      1  0.4746200000000  0.4642570000000  0.5157290000000 1.0
C      1  0.5222600000000  0.5171270000000  0.5221890000000 1.0
C      1  0.4681510000000  0.5163650000000  0.4850190000000 1.0
C      1  0.5101930000000  0.5231830000000  0.5425090000000 1.0
C      1  0.4848540000000  0.4627230000000  0.5253250000000 1.0
C      1  0.5288850000000  0.4657150000000  0.4833640000000 1.0
C      1  0.5432970000000  0.4843770000000  0.4738230000000 1.0
C      1  0.4759700000000  0.5235170000000  0.4744990000000 1.0
C      1  0.5216110000000  0.5164080000000  0.5368040000000 1.0
C      1  0.5449110000000  0.5181180000000  0.4874740000000 1.0
C      1  0.4776200000000  0.4645520000000  0.4821910000000 1.0
C      1  0.4873210000000  0.5260950000000  0.5471490000000 1.0
C      1  0.4654060000000  0.5244860000000  0.5185360000000 1.0
C      1  0.5313150000000  0.4848840000000  0.5220840000000 1.0
C      1  0.4638460000000  0.4701230000000  0.4821790000000 1.0
C      1  0.5253550000000  0.4854880000000  0.5344610000000 1.0
C      1  0.4933460000000  0.5392990000000  0.5460640000000 1.0
C      1  0.5150790000000  0.5361880000000  0.4739640000000 1.0
C      1  0.5151850000000  0.5234850000000  0.4664650000000 1.0
C      1  0.4609620000000  0.4814210000000  0.4742140000000 1.0
C      1  0.5314350000000  0.4939990000000  0.5446580000000 1.0
C      1  0.4473350000000  0.5409420000000  0.4672270000000 1.0
C      1  0.4616440000000  0.4437970000000  0.5429340000000 1.0
C      1  0.5459620000000  0.4632020000000  0.4440070000000 1.0
C      1  0.5487060000000  0.5373520000000  0.5346200000000 1.0
C      1  0.4443540000000  0.4598270000000  0.5337630000000 1.0
C      1  0.5606570000000  0.4544930000000  0.4624410000000 1.0
C      1  0.5399530000000  0.4424590000000  0.4558270000000 1.0
C      1  0.4650560000000  0.5553330000000  0.4573800000000 1.0
C      1  0.5302280000000  0.5503260000000  0.5435330000000 1.0
C      1  0.4575150000000  0.4663790000000  0.5538900000000 1.0
C      1  0.5362770000000  0.5300720000000  0.5569190000000 1.0
C      1  0.4578610000000  0.5360800000000  0.4450930000000 1.0
C      1  0.4428220000000  0.4495750000000  0.4637770000000 1.0
C      1  0.4622150000000  0.5607330000000  0.5462860000000 1.0
C      1  0.5428390000000  0.5367250000000  0.4438720000000 1.0
C      1  0.5512450000000  0.4595360000000  0.5293210000000 1.0
C      1  0.4435000000000  0.5462910000000  0.5376580000000 1.0
C      1  0.5578930000000  0.5436720000000  0.4616960000000 1.0
C      1  0.5379810000000  0.5573520000000  0.4554570000000 1.0
C      1  0.4645320000000  0.4418920000000  0.4561500000000 1.0
C      1  0.5287150000000  0.4516380000000  0.5348910000000 1.0
C      1  0.4557570000000  0.5401550000000  0.5580350000000 1.0
C      1  0.5421240000000  0.4632790000000  0.5526490000000 1.0
C      1  0.4547300000000  0.4618190000000  0.4452090000000 1.0
C      1  0.4201860000000  0.4550650000000  0.5124710000000 1.0
C      1  0.5142150000000  0.4201000000000  0.4640460000000 1.0
C      1  0.4586840000000  0.5126580000000  0.4236780000000 1.0
C      1  0.5838540000000  0.4517600000000  0.4857060000000 1.0
C      1  0.4271240000000  0.5399040000000  0.4935140000000 1.0
C      1  0.5753430000000  0.5407470000000  0.5095880000000 1.0
C      1  0.4831490000000  0.4176940000000  0.5439050000000 1.0
C      1  0.5110810000000  0.5773870000000  0.5427190000000 1.0
C      1  0.4885130000000  0.5781480000000  0.4575870000000 1.0
C      1  0.5301820000000  0.5098220000000  0.5678640000000 1.0
C      1  0.4592710000000  0.4912050000000  0.5779470000000 1.0
C      1  0.5354600000000  0.4867940000000  0.4233170000000 1.0
C      1  0.4253610000000  0.5293030000000  0.5152270000000 1.0
C      1  0.5135290000000  0.5789100000000  0.4580070000000 1.0
C      1  0.4587400000000  0.4872790000000  0.4253050000000 1.0
C      1  0.5811250000000  0.5440170000000  0.4849430000000 1.0
C      1  0.4196300000000  0.4482710000000  0.4879780000000 1.0
C      1  0.5791720000000  0.4518930000000  0.5105490000000 1.0
C      1  0.4864160000000  0.5816490000000  0.5424530000000 1.0
C      1  0.5065310000000  0.4235260000000  0.5383650000000 1.0
C      1  0.4909030000000  0.4207400000000  0.4613780000000 1.0
C      1  0.5283840000000  0.4848480000000  0.5668260000000 1.0
C      1  0.4572300000000  0.5163810000000  0.5807860000000 1.0
C      1  0.5382820000000  0.5121750000000  0.4231870000000 1.0
C      1  0.4265870000000  0.5400790000000  0.5064810000000 1.0
C      1  0.5833580000000  0.4498410000000  0.4984530000000 1.0
C      1  0.5801260000000  0.5435310000000  0.4978780000000 1.0
C      1  0.4183360000000  0.4505750000000  0.5006270000000 1.0
C      1  0.5010230000000  0.5794550000000  0.4543510000000 1.0
C      1  0.4959440000000  0.4171180000000  0.5417670000000 1.0
C      1  0.4989400000000  0.5810430000000  0.5444650000000 1.0
C      1  0.5244310000000  0.4974220000000  0.5725230000000 1.0
C      1  0.5034000000000  0.4234070000000  0.4556390000000 1.0
C      1  0.4565450000000  0.4998240000000  0.4239960000000 1.0
C      1  0.5374580000000  0.4994650000000  0.4228350000000 1.0
C      1  0.4577740000000  0.5036340000000  0.5806830000000 1.0
C      1  0.5505900000000  0.4517330000000  0.4518050000000 1.0
C      1  0.4543670000000  0.5458510000000  0.4552010000000 1.0
C      1  0.4524810000000  0.4554650000000  0.5453990000000 1.0
C      1  0.5402560000000  0.5396290000000  0.5467280000000 1.0
C      1  0.4527170000000  0.4495400000000  0.4529890000000 1.0
C      1  0.4517850000000  0.5509640000000  0.5489120000000 1.0
C      1  0.5419690000000  0.4569620000000  0.5398360000000 1.0
C      1  0.5483710000000  0.5478860000000  0.4516230000000 1.0
END
