TITL C-855863-9781-128 366.546674457429 1000000 -4245.06590625956 0 0 600 (S4) n - 1
REM
REM in /scratch/bkarasulu/Larger-Clusters
REM
REM
REM
REM
REM
REM ./C.cell (28d0ae7d613b82ecca3ae8fabf5dfced)
REM
REM compiler GCC version 9.2.1 20190827 (Red Hat 9.2.1-1)
REM options -cpp -mtune=generic -march=x86-64 -g -O0 -fpre-include=/usr/include/finclude/math-vector-fortran.h
REM seed -1239347077 -1063947410 1632268508 672314707 -642622989 -30362950 -412968866 -1250686547 197292959 80525288 -1955095147 -127418397 -1527891333 -1686599925 -1855082337 63316854 1031872967 -1602501569 1876142721 -1393539737 982654631 -504352453 1693330622 -574459617 -1448897008 -1931468577 -235604420 1202750295 -1639903099 -1648614329 -1481692037 1436006330 -1939500345
REM
CELL 1.54180  100.00000  100.00000  100.00000   90.00000   90.00000   90.00000
LATT -1
SFAC C  
C      1  0.4007460000000  0.4813370000000  0.4914100000000 1.0
C      1  0.4913600000000  0.4004940000000  0.4812840000000 1.0
C      1  0.4813340000000  0.4913740000000  0.4006130000000 1.0
C      1  0.5995280000000  0.4813320000000  0.5086840000000 1.0
C      1  0.4004700000000  0.5186680000000  0.5086760000000 1.0
C      1  0.5992550000000  0.5186630000000  0.4914170000000 1.0
C      1  0.5086400000000  0.4007090000000  0.5186160000000 1.0
C      1  0.4913590000000  0.5992910000000  0.5186150000000 1.0
C      1  0.5086410000000  0.5995050000000  0.4812840000000 1.0
C      1  0.5186630000000  0.4913480000000  0.5994080000000 1.0
C      1  0.4813300000000  0.5086530000000  0.5994060000000 1.0
C      1  0.5186720000000  0.5086240000000  0.4006140000000 1.0
C      1  0.4913510000000  0.4813330000000  0.4005930000000 1.0
C      1  0.4813330000000  0.4004710000000  0.4913200000000 1.0
C      1  0.4007110000000  0.4913590000000  0.4813810000000 1.0
C      1  0.5086220000000  0.4813310000000  0.5993870000000 1.0
C      1  0.5086560000000  0.5186660000000  0.4005930000000 1.0
C      1  0.4913720000000  0.5186700000000  0.5993860000000 1.0
C      1  0.5186620000000  0.4007450000000  0.5085880000000 1.0
C      1  0.5186680000000  0.5995290000000  0.4913200000000 1.0
C      1  0.4813370000000  0.5992550000000  0.5085860000000 1.0
C      1  0.5995040000000  0.4913590000000  0.5187200000000 1.0
C      1  0.5992910000000  0.5086400000000  0.4813880000000 1.0
C      1  0.4004940000000  0.5086410000000  0.5187130000000 1.0
C      1  0.5793110000000  0.5418900000000  0.5031480000000 1.0
C      1  0.5031140000000  0.5793510000000  0.5418480000000 1.0
C      1  0.5419830000000  0.5030420000000  0.5795020000000 1.0
C      1  0.4204540000000  0.5419690000000  0.4969730000000 1.0
C      1  0.5795450000000  0.4580310000000  0.4969790000000 1.0
C      1  0.4206900000000  0.4581100000000  0.5031430000000 1.0
C      1  0.4969780000000  0.5795570000000  0.4579370000000 1.0
C      1  0.5030250000000  0.4204410000000  0.4579380000000 1.0
C      1  0.4968830000000  0.4206500000000  0.5418480000000 1.0
C      1  0.4580980000000  0.5030980000000  0.4206210000000 1.0
C      1  0.5419070000000  0.4969010000000  0.4206240000000 1.0
C      1  0.4580120000000  0.4969590000000  0.5794990000000 1.0
C      1  0.5030950000000  0.5419050000000  0.5793770000000 1.0
C      1  0.5419680000000  0.5795450000000  0.5030250000000 1.0
C      1  0.5795560000000  0.5030240000000  0.5420650000000 1.0
C      1  0.4969610000000  0.5419850000000  0.4204980000000 1.0
C      1  0.4968990000000  0.4580960000000  0.5793780000000 1.0
C      1  0.5030450000000  0.4580140000000  0.4204990000000 1.0
C      1  0.4581100000000  0.5793110000000  0.4968530000000 1.0
C      1  0.4580310000000  0.4204550000000  0.5030230000000 1.0
C      1  0.5418900000000  0.4206890000000  0.4968560000000 1.0
C      1  0.4206510000000  0.5031160000000  0.4581490000000 1.0
C      1  0.4204400000000  0.4969770000000  0.5420600000000 1.0
C      1  0.5793520000000  0.4968840000000  0.4581550000000 1.0
C      1  0.5396720000000  0.4706500000000  0.4165800000000 1.0
C      1  0.4164880000000  0.5397240000000  0.4707190000000 1.0
C      1  0.4706480000000  0.4165420000000  0.5396410000000 1.0
C      1  0.4602710000000  0.4706960000000  0.5834600000000 1.0
C      1  0.5397230000000  0.5293050000000  0.5834620000000 1.0
C      1  0.4603340000000  0.5293490000000  0.4165760000000 1.0
C      1  0.5833770000000  0.5396620000000  0.5294020000000 1.0
C      1  0.4166210000000  0.4603390000000  0.5293970000000 1.0
C      1  0.5835140000000  0.4602760000000  0.4707250000000 1.0
C      1  0.5292990000000  0.4165510000000  0.4602230000000 1.0
C      1  0.4707040000000  0.5834480000000  0.4602200000000 1.0
C      1  0.5293490000000  0.5834580000000  0.5396430000000 1.0
C      1  0.4165510000000  0.4707030000000  0.5397750000000 1.0
C      1  0.4706990000000  0.5397260000000  0.4165370000000 1.0
C      1  0.5396630000000  0.4166210000000  0.4706020000000 1.0
C      1  0.5834590000000  0.4706490000000  0.4603610000000 1.0
C      1  0.5834460000000  0.5292980000000  0.5397810000000 1.0
C      1  0.4165430000000  0.5293510000000  0.4603550000000 1.0
C      1  0.5293470000000  0.5396690000000  0.5834220000000 1.0
C      1  0.5293070000000  0.4602730000000  0.4165400000000 1.0
C      1  0.4706470000000  0.4603320000000  0.5834210000000 1.0
C      1  0.4602760000000  0.4164870000000  0.5292770000000 1.0
C      1  0.4603390000000  0.5833780000000  0.4705990000000 1.0
C      1  0.5397220000000  0.5835130000000  0.5292790000000 1.0
C      1  0.4358100000000  0.5244650000000  0.4174980000000 1.0
C      1  0.4175100000000  0.4358200000000  0.5244900000000 1.0
C      1  0.5244360000000  0.4173980000000  0.4356940000000 1.0
C      1  0.5642490000000  0.5244280000000  0.5826340000000 1.0
C      1  0.4357450000000  0.4755730000000  0.5826300000000 1.0
C      1  0.5641960000000  0.4755340000000  0.4175030000000 1.0
C      1  0.5826170000000  0.4357500000000  0.4755870000000 1.0
C      1  0.4173840000000  0.5642500000000  0.4755800000000 1.0
C      1  0.5824880000000  0.5641810000000  0.5244960000000 1.0
C      1  0.4755420000000  0.4174670000000  0.5641620000000 1.0
C      1  0.5244530000000  0.5825340000000  0.5641630000000 1.0
C      1  0.4755680000000  0.5826000000000  0.4356910000000 1.0
C      1  0.4174690000000  0.5244560000000  0.4358340000000 1.0
C      1  0.5244300000000  0.4357470000000  0.4173690000000 1.0
C      1  0.4357500000000  0.4173840000000  0.5244150000000 1.0
C      1  0.5825990000000  0.5244340000000  0.5643100000000 1.0
C      1  0.5825360000000  0.4755440000000  0.4358410000000 1.0
C      1  0.4173970000000  0.4755670000000  0.5643050000000 1.0
C      1  0.4755320000000  0.4358080000000  0.5824990000000 1.0
C      1  0.4755760000000  0.5642520000000  0.4173660000000 1.0
C      1  0.5244630000000  0.5641930000000  0.5825000000000 1.0
C      1  0.5641820000000  0.4175110000000  0.4755100000000 1.0
C      1  0.5642480000000  0.5826170000000  0.5244190000000 1.0
C      1  0.4358200000000  0.5824890000000  0.4755040000000 1.0
C      1  0.4442030000000  0.5112720000000  0.5307090000000 1.0
C      1  0.5304390000000  0.4445630000000  0.5108210000000 1.0
C      1  0.5110050000000  0.5305710000000  0.4443360000000 1.0
C      1  0.5554810000000  0.5108560000000  0.4696100000000 1.0
C      1  0.4445230000000  0.4891470000000  0.4696070000000 1.0
C      1  0.5557930000000  0.4887300000000  0.5307120000000 1.0
C      1  0.4693450000000  0.4441910000000  0.4886460000000 1.0
C      1  0.5306550000000  0.5558080000000  0.4886490000000 1.0
C      1  0.4695600000000  0.5554370000000  0.5108180000000 1.0
C      1  0.4888190000000  0.5305680000000  0.5555940000000 1.0
C      1  0.5111780000000  0.4694320000000  0.5555960000000 1.0
C      1  0.4890000000000  0.4694280000000  0.4443360000000 1.0
C      1  0.5305700000000  0.5111800000000  0.4444050000000 1.0
C      1  0.5108540000000  0.4445210000000  0.5303920000000 1.0
C      1  0.4441900000000  0.5306560000000  0.5113510000000 1.0
C      1  0.4694270000000  0.5110020000000  0.5556620000000 1.0
C      1  0.4694340000000  0.4888200000000  0.4444040000000 1.0
C      1  0.5305700000000  0.4889970000000  0.5556660000000 1.0
C      1  0.4887300000000  0.4442040000000  0.4692890000000 1.0
C      1  0.4891430000000  0.5554800000000  0.5303910000000 1.0
C      1  0.5112710000000  0.5557940000000  0.4692900000000 1.0
C      1  0.5554370000000  0.5304400000000  0.4891820000000 1.0
C      1  0.5558080000000  0.4693450000000  0.5113540000000 1.0
C      1  0.4445650000000  0.4695620000000  0.4891800000000 1.0
C      1  0.4765580000000  0.4963710000000  0.4553770000000 1.0
C      1  0.4557670000000  0.4763020000000  0.4967520000000 1.0
C      1  0.4965530000000  0.4550020000000  0.4763150000000 1.0
C      1  0.5236450000000  0.4967160000000  0.5447020000000 1.0
C      1  0.4763510000000  0.5032830000000  0.5446980000000 1.0
C      1  0.5234470000000  0.5036280000000  0.4553780000000 1.0
C      1  0.5450310000000  0.4766480000000  0.5037310000000 1.0
C      1  0.4549660000000  0.5233520000000  0.5037280000000 1.0
C      1  0.5442360000000  0.5236980000000  0.4967530000000 1.0
C      1  0.5035100000000  0.4557310000000  0.5233760000000 1.0
C      1  0.4964870000000  0.5442690000000  0.5233750000000 1.0
C      1  0.5034490000000  0.5449960000000  0.4763150000000 1.0
C      1  0.4557340000000  0.4964890000000  0.4766230000000 1.0
C      1  0.4967200000000  0.4763520000000  0.4553000000000 1.0
C      1  0.4766490000000  0.4549670000000  0.4962700000000 1.0
C      1  0.5449950000000  0.4965530000000  0.5236870000000 1.0
C      1  0.5442710000000  0.5035110000000  0.4766250000000 1.0
C      1  0.4550010000000  0.5034500000000  0.5236830000000 1.0
C      1  0.5036270000000  0.4765550000000  0.5446240000000 1.0
C      1  0.5032860000000  0.5236460000000  0.4553000000000 1.0
C      1  0.4963700000000  0.5234450000000  0.5446210000000 1.0
C      1  0.5236980000000  0.4557650000000  0.5032490000000 1.0
C      1  0.5233520000000  0.5450310000000  0.4962720000000 1.0
C      1  0.4763010000000  0.5442360000000  0.5032460000000 1.0
C      1  0.4754260000000  0.5925890000000  0.4854970000000 1.0
C      1  0.4855380000000  0.4754170000000  0.5926580000000 1.0
C      1  0.5926810000000  0.4855460000000  0.4754540000000 1.0
C      1  0.5246230000000  0.5927770000000  0.5144070000000 1.0
C      1  0.4753760000000  0.4072230000000  0.5144060000000 1.0
C      1  0.5245750000000  0.4074100000000  0.4854990000000 1.0
C      1  0.5144340000000  0.4753800000000  0.4073080000000 1.0
C      1  0.4855720000000  0.5246190000000  0.4073060000000 1.0
C      1  0.5144550000000  0.5245840000000  0.5926580000000 1.0
C      1  0.4072930000000  0.4855660000000  0.5246720000000 1.0
C      1  0.5927050000000  0.5144350000000  0.5246780000000 1.0
C      1  0.4073210000000  0.5144540000000  0.4754470000000 1.0
C      1  0.4855660000000  0.5927050000000  0.4753240000000 1.0
C      1  0.5927780000000  0.4753760000000  0.4855970000000 1.0
C      1  0.4753770000000  0.4855700000000  0.5926910000000 1.0
C      1  0.5144530000000  0.5926800000000  0.5245500000000 1.0
C      1  0.5144350000000  0.4072940000000  0.4753260000000 1.0
C      1  0.4855450000000  0.4073200000000  0.5245500000000 1.0
C      1  0.4074100000000  0.4754260000000  0.5144990000000 1.0
C      1  0.4072230000000  0.5246240000000  0.4855900000000 1.0
C      1  0.5925890000000  0.5245740000000  0.5145050000000 1.0
C      1  0.5245860000000  0.4855410000000  0.4073420000000 1.0
C      1  0.5246160000000  0.5144310000000  0.5926930000000 1.0
C      1  0.4754200000000  0.5144580000000  0.4073400000000 1.0
C      1  0.4851860000000  0.5250800000000  0.5685920000000 1.0
C      1  0.5688070000000  0.4850210000000  0.5253200000000 1.0
C      1  0.5253010000000  0.5688340000000  0.4849370000000 1.0
C      1  0.5147270000000  0.5250540000000  0.4313780000000 1.0
C      1  0.4852780000000  0.4749460000000  0.4313780000000 1.0
C      1  0.5148110000000  0.4749190000000  0.5685940000000 1.0
C      1  0.4315910000000  0.4855110000000  0.4752300000000 1.0
C      1  0.5684120000000  0.5144920000000  0.4752330000000 1.0
C      1  0.4311900000000  0.5149820000000  0.5253170000000 1.0
C      1  0.4752250000000  0.5683690000000  0.5144220000000 1.0
C      1  0.5247740000000  0.4316310000000  0.5144240000000 1.0
C      1  0.4746990000000  0.4311650000000  0.4849350000000 1.0
C      1  0.5683700000000  0.5247750000000  0.4855790000000 1.0
C      1  0.5250520000000  0.4852750000000  0.5686230000000 1.0
C      1  0.4855080000000  0.5684110000000  0.5247680000000 1.0
C      1  0.4311640000000  0.5253020000000  0.5150620000000 1.0
C      1  0.4316330000000  0.4752270000000  0.4855760000000 1.0
C      1  0.5688330000000  0.4746990000000  0.5150660000000 1.0
C      1  0.4749220000000  0.4851870000000  0.4314060000000 1.0
C      1  0.4749450000000  0.5147240000000  0.5686200000000 1.0
C      1  0.5250830000000  0.5148120000000  0.4314070000000 1.0
C      1  0.5149810000000  0.5688080000000  0.4746820000000 1.0
C      1  0.5144900000000  0.4315890000000  0.5247690000000 1.0
C      1  0.4850200000000  0.4311910000000  0.4746810000000 1.0
C      1  0.5767050000000  0.4693250000000  0.4144220000000 1.0
C      1  0.4143380000000  0.5767540000000  0.4693490000000 1.0
C      1  0.4693370000000  0.4143820000000  0.5766710000000 1.0
C      1  0.4232470000000  0.4693460000000  0.5857150000000 1.0
C      1  0.5767470000000  0.5306550000000  0.5857200000000 1.0
C      1  0.4233010000000  0.5306740000000  0.4144160000000 1.0
C      1  0.5856040000000  0.5766880000000  0.5306910000000 1.0
C      1  0.4143940000000  0.4233130000000  0.5306850000000 1.0
C      1  0.5856640000000  0.4232460000000  0.4693560000000 1.0
C      1  0.5306700000000  0.4143320000000  0.4231940000000 1.0
C      1  0.4693350000000  0.5856670000000  0.4231910000000 1.0
C      1  0.5306580000000  0.5856190000000  0.5766720000000 1.0
C      1  0.4143300000000  0.4693330000000  0.5768040000000 1.0
C      1  0.4693490000000  0.5767490000000  0.4142810000000 1.0
C      1  0.5766890000000  0.4143950000000  0.4693150000000 1.0
C      1  0.5856210000000  0.4693390000000  0.4233320000000 1.0
C      1  0.5856650000000  0.5306680000000  0.5768100000000 1.0
C      1  0.4143840000000  0.5306610000000  0.4233250000000 1.0
C      1  0.5306710000000  0.5767020000000  0.5855810000000 1.0
C      1  0.5306580000000  0.4232490000000  0.4142840000000 1.0
C      1  0.4693230000000  0.4232990000000  0.5855800000000 1.0
C      1  0.4232450000000  0.4143380000000  0.5306450000000 1.0
C      1  0.4233130000000  0.5856060000000  0.4693090000000 1.0
C      1  0.5767530000000  0.5856630000000  0.5306500000000 1.0
C      1  0.5328470000000  0.4774400000000  0.5130610000000 1.0
C      1  0.5127900000000  0.5328170000000  0.4771250000000 1.0
C      1  0.4770240000000  0.5127750000000  0.5326430000000 1.0
C      1  0.4676600000000  0.4769730000000  0.4870650000000 1.0
C      1  0.5323430000000  0.5230260000000  0.4870670000000 1.0
C      1  0.4671510000000  0.5225610000000  0.5130580000000 1.0
C      1  0.4868250000000  0.5323710000000  0.5227460000000 1.0
C      1  0.5131730000000  0.4676290000000  0.5227480000000 1.0
C      1  0.4872120000000  0.4671810000000  0.4771250000000 1.0
C      1  0.5226180000000  0.5131780000000  0.4674080000000 1.0
C      1  0.4773860000000  0.4868210000000  0.4674060000000 1.0
C      1  0.5229730000000  0.4872260000000  0.5326460000000 1.0
C      1  0.5131770000000  0.4773840000000  0.5325940000000 1.0
C      1  0.4769720000000  0.5323420000000  0.5129320000000 1.0
C      1  0.5323720000000  0.5131730000000  0.4772540000000 1.0
C      1  0.4872280000000  0.4770250000000  0.4673550000000 1.0
C      1  0.4868200000000  0.5226170000000  0.5325920000000 1.0
C      1  0.5127760000000  0.5229730000000  0.4673550000000 1.0
C      1  0.5225610000000  0.5328470000000  0.4869410000000 1.0
C      1  0.5230260000000  0.4676580000000  0.5129360000000 1.0
C      1  0.4774410000000  0.4671510000000  0.4869400000000 1.0
C      1  0.4671800000000  0.5127900000000  0.5228730000000 1.0
C      1  0.4676310000000  0.4868260000000  0.4772520000000 1.0
C      1  0.5328170000000  0.4872110000000  0.5228760000000 1.0
C      1  0.5278580000000  0.5486170000000  0.4137320000000 1.0
C      1  0.4136480000000  0.5278190000000  0.5486690000000 1.0
C      1  0.5486000000000  0.4138890000000  0.5278130000000 1.0
C      1  0.4722240000000  0.5486350000000  0.5862070000000 1.0
C      1  0.5277700000000  0.4513670000000  0.5862100000000 1.0
C      1  0.4721470000000  0.4513810000000  0.4137320000000 1.0
C      1  0.5861090000000  0.5278170000000  0.4514350000000 1.0
C      1  0.4138950000000  0.4721820000000  0.4514290000000 1.0
C      1  0.5863480000000  0.4721810000000  0.5486750000000 1.0
C      1  0.4513640000000  0.4136810000000  0.4722040000000 1.0
C      1  0.5486380000000  0.5863190000000  0.4722070000000 1.0
C      1  0.4513970000000  0.5861110000000  0.5278090000000 1.0
C      1  0.4136790000000  0.5486380000000  0.5277910000000 1.0
C      1  0.5486370000000  0.5277720000000  0.4137930000000 1.0
C      1  0.5278160000000  0.4138930000000  0.5485700000000 1.0
C      1  0.5861120000000  0.5486010000000  0.4721920000000 1.0
C      1  0.5863180000000  0.4513620000000  0.5277980000000 1.0
C      1  0.4138910000000  0.4513990000000  0.4721860000000 1.0
C      1  0.4513790000000  0.5278560000000  0.5862660000000 1.0
C      1  0.4513690000000  0.4722270000000  0.4137910000000 1.0
C      1  0.5486150000000  0.4721450000000  0.5862710000000 1.0
C      1  0.4721830000000  0.4136490000000  0.4513280000000 1.0
C      1  0.4721800000000  0.5861080000000  0.5485670000000 1.0
C      1  0.5278200000000  0.5863490000000  0.4513290000000 1.0
C      1  0.4769510000000  0.5783170000000  0.5570400000000 1.0
C      1  0.5570760000000  0.4769000000000  0.5784520000000 1.0
C      1  0.5783260000000  0.5570830000000  0.4769550000000 1.0
C      1  0.5230880000000  0.5784720000000  0.4429110000000 1.0
C      1  0.4769160000000  0.4215260000000  0.4429100000000 1.0
C      1  0.5230450000000  0.4216840000000  0.5570420000000 1.0
C      1  0.4429470000000  0.4769710000000  0.4216530000000 1.0
C      1  0.5570580000000  0.5230280000000  0.4216570000000 1.0
C      1  0.4429190000000  0.5231020000000  0.5784480000000 1.0
C      1  0.4215820000000  0.5570260000000  0.5230510000000 1.0
C      1  0.5784160000000  0.4429730000000  0.5230580000000 1.0
C      1  0.4216760000000  0.4429170000000  0.4769500000000 1.0
C      1  0.5570270000000  0.5784160000000  0.4769470000000 1.0
C      1  0.5784710000000  0.4769150000000  0.5570930000000 1.0
C      1  0.4769680000000  0.5570560000000  0.5783440000000 1.0
C      1  0.4429160000000  0.5783250000000  0.5230450000000 1.0
C      1  0.4429750000000  0.4215840000000  0.4769440000000 1.0
C      1  0.5570820000000  0.4216750000000  0.5230500000000 1.0
C      1  0.4216860000000  0.4769530000000  0.4429560000000 1.0
C      1  0.4215250000000  0.5230860000000  0.5570870000000 1.0
C      1  0.5783180000000  0.5230460000000  0.4429620000000 1.0
C      1  0.5231040000000  0.5570780000000  0.4215500000000 1.0
C      1  0.5230260000000  0.4429450000000  0.5783470000000 1.0
C      1  0.4769020000000  0.4429210000000  0.4215500000000 1.0
C      1  0.5828500000000  0.5331280000000  0.5533420000000 1.0
C      1  0.5532820000000  0.5828960000000  0.5331100000000 1.0
C      1  0.5331620000000  0.5532350000000  0.5827970000000 1.0
C      1  0.4171730000000  0.5331590000000  0.4467870000000 1.0
C      1  0.5828300000000  0.4668410000000  0.4467940000000 1.0
C      1  0.4171460000000  0.4668730000000  0.5533370000000 1.0
C      1  0.4467700000000  0.5827660000000  0.4667940000000 1.0
C      1  0.5532320000000  0.4172330000000  0.4667980000000 1.0
C      1  0.4467150000000  0.4171040000000  0.5331070000000 1.0
C      1  0.4668760000000  0.5532900000000  0.4171240000000 1.0
C      1  0.5331300000000  0.4467090000000  0.4171270000000 1.0
C      1  0.4668320000000  0.4467650000000  0.5827960000000 1.0
C      1  0.5532880000000  0.5331280000000  0.5828760000000 1.0
C      1  0.5331570000000  0.5828290000000  0.5532100000000 1.0
C      1  0.5827650000000  0.5532310000000  0.5332070000000 1.0
C      1  0.4467680000000  0.5331640000000  0.4172010000000 1.0
C      1  0.4467070000000  0.4668730000000  0.5828720000000 1.0
C      1  0.5532380000000  0.4668350000000  0.4172050000000 1.0
C      1  0.4668740000000  0.5828510000000  0.4466590000000 1.0
C      1  0.4668390000000  0.4171720000000  0.5532090000000 1.0
C      1  0.5331300000000  0.4171470000000  0.4466620000000 1.0
C      1  0.4171050000000  0.5532840000000  0.4668880000000 1.0
C      1  0.4172330000000  0.4467700000000  0.5332010000000 1.0
C      1  0.5828970000000  0.4467160000000  0.4668950000000 1.0
C      1  0.5073270000000  0.4660050000000  0.4574680000000 1.0
C      1  0.4578520000000  0.5071030000000  0.4663430000000 1.0
C      1  0.4665360000000  0.4573190000000  0.5069560000000 1.0
C      1  0.4928520000000  0.4664540000000  0.5423770000000 1.0
C      1  0.5071460000000  0.5335460000000  0.5423750000000 1.0
C      1  0.4926800000000  0.5339930000000  0.4574680000000 1.0
C      1  0.5426470000000  0.5071780000000  0.5338730000000 1.0
C      1  0.4573500000000  0.4928260000000  0.5338690000000 1.0
C      1  0.5421530000000  0.4928970000000  0.4663450000000 1.0
C      1  0.5340260000000  0.4578730000000  0.4926180000000 1.0
C      1  0.4659730000000  0.5421270000000  0.4926140000000 1.0
C      1  0.5334650000000  0.5426800000000  0.5069590000000 1.0
C      1  0.4578740000000  0.4659740000000  0.5073830000000 1.0
C      1  0.4664570000000  0.5071470000000  0.4576230000000 1.0
C      1  0.5071780000000  0.4573510000000  0.4661290000000 1.0
C      1  0.5426810000000  0.4665350000000  0.4930440000000 1.0
C      1  0.5421270000000  0.5340260000000  0.5073850000000 1.0
C      1  0.4573180000000  0.5334650000000  0.4930420000000 1.0
C      1  0.5339910000000  0.5073230000000  0.5425330000000 1.0
C      1  0.5335490000000  0.4928530000000  0.4576250000000 1.0
C      1  0.4660040000000  0.4926750000000  0.5425310000000 1.0
C      1  0.4928960000000  0.4578490000000  0.5336570000000 1.0
C      1  0.4928230000000  0.5426480000000  0.4661280000000 1.0
C      1  0.5071010000000  0.5421510000000  0.5336550000000 1.0
C      1  0.5320500000000  0.5078040000000  0.4210710000000 1.0
C      1  0.4208500000000  0.5321330000000  0.5078920000000 1.0
C      1  0.5077540000000  0.4211910000000  0.5319470000000 1.0
C      1  0.4679060000000  0.5078370000000  0.5789960000000 1.0
C      1  0.5320890000000  0.4921630000000  0.5789990000000 1.0
C      1  0.4679550000000  0.4921950000000  0.4210690000000 1.0
C      1  0.5787620000000  0.5319770000000  0.4922850000000 1.0
C      1  0.4212400000000  0.4680240000000  0.4922800000000 1.0
C      1  0.5791480000000  0.4678680000000  0.5078980000000 1.0
C      1  0.4921220000000  0.4208660000000  0.4677970000000 1.0
C      1  0.5078800000000  0.5791330000000  0.4677970000000 1.0
C      1  0.4922440000000  0.5788100000000  0.5319460000000 1.0
C      1  0.4208650000000  0.5078800000000  0.5322000000000 1.0
C      1  0.5078390000000  0.5320910000000  0.4210020000000 1.0
C      1  0.5319770000000  0.4212380000000  0.5077190000000 1.0
C      1  0.5788110000000  0.5077550000000  0.4680570000000 1.0
C      1  0.5791320000000  0.4921210000000  0.5322050000000 1.0
C      1  0.4211920000000  0.4922450000000  0.4680510000000 1.0
C      1  0.4921930000000  0.5320480000000  0.5789290000000 1.0
C      1  0.4921660000000  0.4679080000000  0.4210020000000 1.0
C      1  0.5078020000000  0.4679520000000  0.5789310000000 1.0
C      1  0.4678680000000  0.4208510000000  0.4921040000000 1.0
C      1  0.4680220000000  0.5787620000000  0.5077160000000 1.0
C      1  0.5321320000000  0.5791480000000  0.4921060000000 1.0
C      1  0.4738070000000  0.5363640000000  0.5930550000000 1.0
C      1  0.5932270000000  0.4737310000000  0.5364100000000 1.0
C      1  0.5363850000000  0.5932310000000  0.4737210000000 1.0
C      1  0.5262540000000  0.5363280000000  0.4069210000000 1.0
C      1  0.4737520000000  0.4636710000000  0.4069210000000 1.0
C      1  0.5261870000000  0.4636370000000  0.5930590000000 1.0
C      1  0.4071130000000  0.4738220000000  0.4637230000000 1.0
C      1  0.5928910000000  0.5261780000000  0.4637290000000 1.0
C      1  0.4067690000000  0.5262690000000  0.5364030000000 1.0
C      1  0.4636940000000  0.5928720000000  0.5261400000000 1.0
C      1  0.5363030000000  0.4071280000000  0.5261440000000 1.0
C      1  0.4636170000000  0.4067680000000  0.4737190000000 1.0
C      1  0.5928730000000  0.5363040000000  0.4738610000000 1.0
C      1  0.5363260000000  0.4737490000000  0.5930810000000 1.0
C      1  0.4738200000000  0.5928900000000  0.5362730000000 1.0
C      1  0.4067670000000  0.5363840000000  0.5262760000000 1.0
C      1  0.4071300000000  0.4636960000000  0.4738550000000 1.0
C      1  0.5932300000000  0.4636160000000  0.5262830000000 1.0
C      1  0.4636400000000  0.4738100000000  0.4069420000000 1.0
C      1  0.4636680000000  0.5262520000000  0.5930770000000 1.0
C      1  0.5363660000000  0.5261890000000  0.4069440000000 1.0
C      1  0.5262700000000  0.5932280000000  0.4635940000000 1.0
C      1  0.5261770000000  0.4071110000000  0.5362760000000 1.0
C      1  0.4737320000000  0.4067710000000  0.4635930000000 1.0
C      1  0.4491040000000  0.4580870000000  0.4841790000000 1.0
C      1  0.4839840000000  0.4491020000000  0.4578800000000 1.0
C      1  0.4579860000000  0.4840890000000  0.4492410000000 1.0
C      1  0.5508110000000  0.4579460000000  0.5160060000000 1.0
C      1  0.4491880000000  0.5420550000000  0.5160030000000 1.0
C      1  0.5508970000000  0.5419140000000  0.4841820000000 1.0
C      1  0.5157720000000  0.4491340000000  0.5418660000000 1.0
C      1  0.4842260000000  0.5508660000000  0.5418660000000 1.0
C      1  0.5160190000000  0.5508970000000  0.4578810000000 1.0
C      1  0.5420010000000  0.4840940000000  0.5509660000000 1.0
C      1  0.4579960000000  0.5159070000000  0.5509640000000 1.0
C      1  0.5420180000000  0.5159130000000  0.4492430000000 1.0
C      1  0.4840960000000  0.4579970000000  0.4490350000000 1.0
C      1  0.4579460000000  0.4491900000000  0.4839940000000 1.0
C      1  0.4491350000000  0.4842290000000  0.4581330000000 1.0
C      1  0.5159110000000  0.4579840000000  0.5507590000000 1.0
C      1  0.5159080000000  0.5420020000000  0.4490350000000 1.0
C      1  0.4840870000000  0.5420160000000  0.5507580000000 1.0
C      1  0.5419130000000  0.4491030000000  0.5158220000000 1.0
C      1  0.5420550000000  0.5508120000000  0.4839970000000 1.0
C      1  0.4580860000000  0.5508970000000  0.5158190000000 1.0
C      1  0.5508960000000  0.4839830000000  0.5421210000000 1.0
C      1  0.5508670000000  0.5157740000000  0.4581360000000 1.0
C      1  0.4491010000000  0.5160190000000  0.5421180000000 1.0
C      1  0.5649930000000  0.4250980000000  0.4877560000000 1.0
C      1  0.4878150000000  0.5650670000000  0.4249620000000 1.0
C      1  0.4249880000000  0.4878100000000  0.5651150000000 1.0
C      1  0.4349780000000  0.4250280000000  0.5122080000000 1.0
C      1  0.5650210000000  0.5749730000000  0.5122120000000 1.0
C      1  0.4350080000000  0.5749020000000  0.4877510000000 1.0
C      1  0.5122410000000  0.5649800000000  0.5748790000000 1.0
C      1  0.4877540000000  0.4350210000000  0.5748790000000 1.0
C      1  0.5121900000000  0.4349320000000  0.4249640000000 1.0
C      1  0.5749080000000  0.4877610000000  0.4350580000000 1.0
C      1  0.4250960000000  0.5122390000000  0.4350520000000 1.0
C      1  0.5750070000000  0.5121900000000  0.5651200000000 1.0
C      1  0.4877590000000  0.4250940000000  0.5649450000000 1.0
C      1  0.4250280000000  0.5650220000000  0.4877870000000 1.0
C      1  0.5649820000000  0.4877560000000  0.4251230000000 1.0
C      1  0.5121920000000  0.4249900000000  0.4348830000000 1.0
C      1  0.5122360000000  0.5749070000000  0.5649450000000 1.0
C      1  0.4878120000000  0.5750090000000  0.4348820000000 1.0
C      1  0.5749010000000  0.5649930000000  0.5122490000000 1.0
C      1  0.5749730000000  0.4349780000000  0.4877930000000 1.0
C      1  0.4250980000000  0.4350080000000  0.5122440000000 1.0
C      1  0.4349300000000  0.4878130000000  0.5750350000000 1.0
C      1  0.4350230000000  0.5122430000000  0.4251180000000 1.0
C      1  0.5650640000000  0.5121880000000  0.5750390000000 1.0
C      1  0.5750390000000  0.5552830000000  0.5015770000000 1.0
C      1  0.5015690000000  0.5750420000000  0.5552290000000 1.0
C      1  0.5553680000000  0.5015000000000  0.5751900000000 1.0
C      1  0.4248570000000  0.5553230000000  0.4984690000000 1.0
C      1  0.5751430000000  0.4446770000000  0.4984750000000 1.0
C      1  0.4249610000000  0.4447180000000  0.5015720000000 1.0
C      1  0.4985030000000  0.5751930000000  0.4445690000000 1.0
C      1  0.5015010000000  0.4248060000000  0.4445700000000 1.0
C      1  0.4984270000000  0.4249590000000  0.5552290000000 1.0
C      1  0.4447280000000  0.5015700000000  0.4249600000000 1.0
C      1  0.5552770000000  0.4984300000000  0.4249640000000 1.0
C      1  0.4446260000000  0.4985010000000  0.5751860000000 1.0
C      1  0.5015670000000  0.5552750000000  0.5750380000000 1.0
C      1  0.5553220000000  0.5751430000000  0.5015290000000 1.0
C      1  0.5751920000000  0.5014990000000  0.5554330000000 1.0
C      1  0.4985030000000  0.5553700000000  0.4248120000000 1.0
C      1  0.4984280000000  0.4447250000000  0.5750390000000 1.0
C      1  0.5015020000000  0.4446280000000  0.4248120000000 1.0
C      1  0.4447170000000  0.5750400000000  0.4984230000000 1.0
C      1  0.4446780000000  0.4248570000000  0.5015260000000 1.0
C      1  0.5552830000000  0.4249600000000  0.4984270000000 1.0
C      1  0.4249610000000  0.5015710000000  0.4447680000000 1.0
C      1  0.4248040000000  0.4985020000000  0.5554280000000 1.0
C      1  0.5750430000000  0.4984290000000  0.4447740000000 1.0
C      1  0.4999280000000  0.5478890000000  0.5098560000000 1.0
C      1  0.5101790000000  0.5001430000000  0.5487050000000 1.0
C      1  0.5478050000000  0.5101790000000  0.5002580000000 1.0
C      1  0.4998120000000  0.5493090000000  0.4896240000000 1.0
C      1  0.5001890000000  0.4506880000000  0.4896250000000 1.0
C      1  0.5000700000000  0.4521130000000  0.5098570000000 1.0
C      1  0.4899100000000  0.4998990000000  0.4512900000000 1.0
C      1  0.5100950000000  0.5000990000000  0.4512900000000 1.0
C      1  0.4898170000000  0.4998570000000  0.5487000000000 1.0
C      1  0.4506010000000  0.5100450000000  0.5001500000000 1.0
C      1  0.5493950000000  0.4899560000000  0.5001540000000 1.0
C      1  0.4522020000000  0.4898230000000  0.5002570000000 1.0
C      1  0.5100440000000  0.5493950000000  0.4998480000000 1.0
C      1  0.5493080000000  0.5001890000000  0.5103770000000 1.0
C      1  0.4998980000000  0.5100920000000  0.5487070000000 1.0
C      1  0.4898210000000  0.5478040000000  0.4997420000000 1.0
C      1  0.4899560000000  0.4506020000000  0.4998480000000 1.0
C      1  0.5101780000000  0.4521970000000  0.4997440000000 1.0
C      1  0.4521180000000  0.4999300000000  0.4901430000000 1.0
C      1  0.4506870000000  0.4998120000000  0.5103740000000 1.0
C      1  0.5478910000000  0.5000710000000  0.4901450000000 1.0
C      1  0.4998590000000  0.5101800000000  0.4512960000000 1.0
C      1  0.5000980000000  0.4899070000000  0.5487120000000 1.0
C      1  0.5001460000000  0.4898180000000  0.4512980000000 1.0
C      1  0.4008560000000  0.5051360000000  0.4843710000000 1.0
C      1  0.4843160000000  0.4007520000000  0.5051060000000 1.0
C      1  0.5051350000000  0.4843120000000  0.4008270000000 1.0
C      1  0.5991950000000  0.5051460000000  0.5157410000000 1.0
C      1  0.4008040000000  0.4948540000000  0.5157340000000 1.0
C      1  0.5991450000000  0.4948640000000  0.4843780000000 1.0
C      1  0.5156650000000  0.4009250000000  0.4948140000000 1.0
C      1  0.4843360000000  0.5990750000000  0.4948120000000 1.0
C      1  0.5156840000000  0.5992470000000  0.5051060000000 1.0
C      1  0.4948450000000  0.4843350000000  0.5991460000000 1.0
C      1  0.5051480000000  0.5156670000000  0.5991460000000 1.0
C      1  0.4948710000000  0.5156860000000  0.4008260000000 1.0
C      1  0.4843370000000  0.5051510000000  0.4008530000000 1.0
C      1  0.5051470000000  0.4008040000000  0.4842630000000 1.0
C      1  0.4009250000000  0.4843360000000  0.5051830000000 1.0
C      1  0.5156840000000  0.5051330000000  0.5991730000000 1.0
C      1  0.5156690000000  0.4948480000000  0.4008540000000 1.0
C      1  0.4843100000000  0.4948690000000  0.5991720000000 1.0
C      1  0.4948640000000  0.4008550000000  0.5156260000000 1.0
C      1  0.4948540000000  0.5991950000000  0.4842620000000 1.0
C      1  0.5051350000000  0.5991440000000  0.5156250000000 1.0
C      1  0.5992480000000  0.4843160000000  0.4948970000000 1.0
C      1  0.5990750000000  0.5156640000000  0.5051900000000 1.0
C      1  0.4007520000000  0.5156840000000  0.4948900000000 1.0
C      1  0.5715260000000  0.4385600000000  0.5115230000000 1.0
C      1  0.5115680000000  0.5715870000000  0.4384590000000 1.0
C      1  0.4384880000000  0.5115670000000  0.5715930000000 1.0
C      1  0.4285180000000  0.4385500000000  0.4885000000000 1.0
C      1  0.5714830000000  0.5614500000000  0.4885050000000 1.0
C      1  0.4284730000000  0.5614400000000  0.5115170000000 1.0
C      1  0.4885100000000  0.5714750000000  0.5613970000000 1.0
C      1  0.5114860000000  0.4285260000000  0.5613980000000 1.0
C      1  0.4884360000000  0.4284120000000  0.4384590000000 1.0
C      1  0.5614280000000  0.5114870000000  0.4285390000000 1.0
C      1  0.4385760000000  0.4885120000000  0.4285350000000 1.0
C      1  0.5615070000000  0.4884340000000  0.5715980000000 1.0
C      1  0.5114850000000  0.4385740000000  0.5714640000000 1.0
C      1  0.4385490000000  0.5714830000000  0.5114950000000 1.0
C      1  0.5714760000000  0.5114870000000  0.4386050000000 1.0
C      1  0.4884360000000  0.4384900000000  0.4284040000000 1.0
C      1  0.4885100000000  0.5614270000000  0.5714620000000 1.0
C      1  0.5115690000000  0.5615090000000  0.4284040000000 1.0
C      1  0.5614400000000  0.5715260000000  0.4884820000000 1.0
C      1  0.5614490000000  0.4285170000000  0.5115000000000 1.0
C      1  0.4385610000000  0.4284740000000  0.4884780000000 1.0
C      1  0.4284100000000  0.5115670000000  0.5615390000000 1.0
C      1  0.4285280000000  0.4885120000000  0.4386000000000 1.0
C      1  0.5715850000000  0.4884340000000  0.5615440000000 1.0
C      1  0.5361250000000  0.4149820000000  0.4847620000000 1.0
C      1  0.4848590000000  0.5362040000000  0.4148330000000 1.0
C      1  0.4148040000000  0.4848660000000  0.5362680000000 1.0
C      1  0.4637940000000  0.4147570000000  0.5151150000000 1.0
C      1  0.5362050000000  0.5852430000000  0.5151170000000 1.0
C      1  0.4638760000000  0.5850170000000  0.4847580000000 1.0
C      1  0.5151840000000  0.5361410000000  0.5850930000000 1.0
C      1  0.4848100000000  0.4638600000000  0.5850930000000 1.0
C      1  0.5151470000000  0.4637950000000  0.4148350000000 1.0
C      1  0.5851020000000  0.4848060000000  0.4639050000000 1.0
C      1  0.4149010000000  0.5151940000000  0.4638990000000 1.0
C      1  0.5851930000000  0.5151350000000  0.5362740000000 1.0
C      1  0.4848050000000  0.4149000000000  0.5360980000000 1.0
C      1  0.4147570000000  0.5362060000000  0.4848810000000 1.0
C      1  0.5361440000000  0.4848120000000  0.4149080000000 1.0
C      1  0.5151360000000  0.4148050000000  0.4637300000000 1.0
C      1  0.5151920000000  0.5851010000000  0.5360980000000 1.0
C      1  0.4848660000000  0.5851940000000  0.4637280000000 1.0
C      1  0.5850170000000  0.5361250000000  0.5152430000000 1.0
C      1  0.5852430000000  0.4637940000000  0.4848870000000 1.0
C      1  0.4149830000000  0.4638760000000  0.5152370000000 1.0
C      1  0.4637930000000  0.4848560000000  0.5851640000000 1.0
C      1  0.4638620000000  0.5151870000000  0.4149050000000 1.0
C      1  0.5362020000000  0.5151450000000  0.5851670000000 1.0
C      1  0.5128270000000  0.5307600000000  0.4073980000000 1.0
C      1  0.4072550000000  0.5128430000000  0.5308170000000 1.0
C      1  0.5307330000000  0.4076280000000  0.5127220000000 1.0
C      1  0.4872220000000  0.5307590000000  0.5925530000000 1.0
C      1  0.5127720000000  0.4692420000000  0.5925560000000 1.0
C      1  0.4871790000000  0.4692380000000  0.4073980000000 1.0
C      1  0.5924150000000  0.5127600000000  0.4693070000000 1.0
C      1  0.4075880000000  0.4872400000000  0.4693000000000 1.0
C      1  0.5927420000000  0.4871580000000  0.5308230000000 1.0
C      1  0.4692250000000  0.4072400000000  0.4871380000000 1.0
C      1  0.5307760000000  0.5927590000000  0.4871400000000 1.0
C      1  0.4692660000000  0.5923720000000  0.5127190000000 1.0
C      1  0.4072390000000  0.5307760000000  0.5128580000000 1.0
C      1  0.5307610000000  0.5127740000000  0.4074460000000 1.0
C      1  0.5127590000000  0.4075860000000  0.5306980000000 1.0
C      1  0.5923720000000  0.5307330000000  0.4872830000000 1.0
C      1  0.5927590000000  0.4692250000000  0.5128650000000 1.0
C      1  0.4076300000000  0.4692670000000  0.4872770000000 1.0
C      1  0.4692360000000  0.5128250000000  0.5926000000000 1.0
C      1  0.4692450000000  0.4872250000000  0.4074450000000 1.0
C      1  0.5307580000000  0.4871760000000  0.5926030000000 1.0
C      1  0.4871590000000  0.4072560000000  0.4691800000000 1.0
C      1  0.4872380000000  0.5924140000000  0.5306960000000 1.0
C      1  0.5128430000000  0.5927430000000  0.4691800000000 1.0
C      1  0.4440260000000  0.5820680000000  0.4527880000000 1.0
C      1  0.4528280000000  0.4440290000000  0.5820770000000 1.0
C      1  0.5820950000000  0.4528390000000  0.4440480000000 1.0
C      1  0.5559990000000  0.5821260000000  0.5471120000000 1.0
C      1  0.4439980000000  0.4178740000000  0.5471090000000 1.0
C      1  0.5559770000000  0.4179320000000  0.4527930000000 1.0
C      1  0.5471350000000  0.4439880000000  0.4178730000000 1.0
C      1  0.4528710000000  0.5560110000000  0.4178690000000 1.0
C      1  0.5471660000000  0.5559720000000  0.5820790000000 1.0
C      1  0.4178900000000  0.4528660000000  0.5560450000000 1.0
C      1  0.5821060000000  0.5471350000000  0.5560500000000 1.0
C      1  0.4179090000000  0.5471610000000  0.4440420000000 1.0
C      1  0.4528670000000  0.5821080000000  0.4439500000000 1.0
C      1  0.5821270000000  0.4439990000000  0.4528920000000 1.0
C      1  0.4439860000000  0.4528680000000  0.5821270000000 1.0
C      1  0.5471590000000  0.5820930000000  0.5559560000000 1.0
C      1  0.5471360000000  0.4178910000000  0.4439540000000 1.0
C      1  0.4528370000000  0.4179080000000  0.5559540000000 1.0
C      1  0.4179310000000  0.4440250000000  0.5472070000000 1.0
C      1  0.4178760000000  0.5560010000000  0.4528860000000 1.0
C      1  0.5820660000000  0.5559760000000  0.5472120000000 1.0
C      1  0.5559740000000  0.4528310000000  0.4179240000000 1.0
C      1  0.5560080000000  0.5471330000000  0.5821310000000 1.0
C      1  0.4440320000000  0.5471680000000  0.4179190000000 1.0
END
