TITL C-855863-9781-129 -2.86048026986238 1000000 -4313.42527390135 0 0 600 (C1) n - 1
REM
REM in /scratch/bkarasulu/Larger-Clusters
REM
REM
REM
REM
REM
REM ./C.cell (28d0ae7d613b82ecca3ae8fabf5dfced)
REM
REM compiler GCC version 9.2.1 20190827 (Red Hat 9.2.1-1)
REM options -cpp -mtune=generic -march=x86-64 -g -O0 -fpre-include=/usr/include/finclude/math-vector-fortran.h
REM seed 1829575051 -1861028883 -766842505 692727707 -1347334061 -884901843 -241176653 -540658909 -1598774828 -776503141 -794061188 -1703074204 1964488524 1603894861 1257571776 -1086306983 1712828266 -1234478062 -1629834794 472149522 643770305 987344000 -1065318737 -1243854199 -44465124 -1333175958 1345511591 -679736771 1176139364 -1452027751 -2043156217 2064738242 1820712500
REM
CELL 1.54180  100.00000  100.00000  100.00000   90.00000   90.00000   90.00000
LATT -1
SFAC C  
C      1  0.5067350000000  0.5440220000000  0.5963220000000 1.0
C      1  0.5947810000000  0.5084710000000  0.5431410000000 1.0
C      1  0.5436090000000  0.5982190000000  0.5082750000000 1.0
C      1  0.4939000000000  0.4573870000000  0.5971830000000 1.0
C      1  0.4933540000000  0.5433930000000  0.4080510000000 1.0
C      1  0.5067900000000  0.4579420000000  0.4048740000000 1.0
C      1  0.4066730000000  0.4905490000000  0.5418800000000 1.0
C      1  0.4034770000000  0.5079070000000  0.4573890000000 1.0
C      1  0.5953650000000  0.4913120000000  0.4582420000000 1.0
C      1  0.4566790000000  0.4032600000000  0.5050170000000 1.0
C      1  0.4567940000000  0.5982610000000  0.4939460000000 1.0
C      1  0.5428210000000  0.4047210000000  0.4933380000000 1.0
C      1  0.5080250000000  0.5432560000000  0.4088370000000 1.0
C      1  0.5958390000000  0.5059690000000  0.4581410000000 1.0
C      1  0.5435320000000  0.5986480000000  0.4935450000000 1.0
C      1  0.4921340000000  0.4584820000000  0.4049970000000 1.0
C      1  0.4920040000000  0.5435570000000  0.5960160000000 1.0
C      1  0.5085200000000  0.4574730000000  0.5967820000000 1.0
C      1  0.4029090000000  0.4932600000000  0.4565810000000 1.0
C      1  0.4070980000000  0.5052790000000  0.5424130000000 1.0
C      1  0.5949230000000  0.4937010000000  0.5434780000000 1.0
C      1  0.4571970000000  0.4022920000000  0.4903520000000 1.0
C      1  0.4569390000000  0.5973330000000  0.5085280000000 1.0
C      1  0.5425200000000  0.4039470000000  0.5080350000000 1.0
C      1  0.4936570000000  0.4815230000000  0.5996770000000 1.0
C      1  0.5973690000000  0.4919120000000  0.4820830000000 1.0
C      1  0.4810270000000  0.6000660000000  0.4939930000000 1.0
C      1  0.5074690000000  0.5199130000000  0.5987660000000 1.0
C      1  0.5074100000000  0.4818100000000  0.4052210000000 1.0
C      1  0.4930020000000  0.5200630000000  0.4076390000000 1.0
C      1  0.4019640000000  0.5072450000000  0.4814180000000 1.0
C      1  0.4047400000000  0.4914090000000  0.5182620000000 1.0
C      1  0.5972920000000  0.5078240000000  0.5194320000000 1.0
C      1  0.5190730000000  0.4029220000000  0.4925170000000 1.0
C      1  0.5194200000000  0.6002550000000  0.5085350000000 1.0
C      1  0.4808640000000  0.4014450000000  0.5059090000000 1.0
C      1  0.4926800000000  0.4823170000000  0.4050460000000 1.0
C      1  0.5971470000000  0.4929800000000  0.5197580000000 1.0
C      1  0.4810770000000  0.5998930000000  0.5086340000000 1.0
C      1  0.5077110000000  0.5196930000000  0.4083790000000 1.0
C      1  0.5082920000000  0.4816340000000  0.5992220000000 1.0
C      1  0.4927640000000  0.5196060000000  0.5985490000000 1.0
C      1  0.4050050000000  0.5061690000000  0.5188850000000 1.0
C      1  0.4015790000000  0.4924900000000  0.4806670000000 1.0
C      1  0.5977270000000  0.5066810000000  0.4819650000000 1.0
C      1  0.5185740000000  0.4021180000000  0.5072850000000 1.0
C      1  0.5192940000000  0.6005790000000  0.4938150000000 1.0
C      1  0.4813870000000  0.4007000000000  0.4912090000000 1.0
C      1  0.5144160000000  0.5836020000000  0.4545240000000 1.0
C      1  0.4544630000000  0.5126090000000  0.5805870000000 1.0
C      1  0.5803780000000  0.4528580000000  0.5167460000000 1.0
C      1  0.4816750000000  0.4212050000000  0.4533840000000 1.0
C      1  0.4845070000000  0.5817200000000  0.5474420000000 1.0
C      1  0.5146170000000  0.4196680000000  0.5470790000000 1.0
C      1  0.5470320000000  0.4859940000000  0.5813300000000 1.0
C      1  0.5471980000000  0.5142700000000  0.4230480000000 1.0
C      1  0.4525160000000  0.4853770000000  0.4205420000000 1.0
C      1  0.4213150000000  0.5462890000000  0.5139560000000 1.0
C      1  0.4225650000000  0.4540390000000  0.4787400000000 1.0
C      1  0.5779600000000  0.5465170000000  0.4813570000000 1.0
C      1  0.5150290000000  0.5825870000000  0.5478630000000 1.0
C      1  0.4526550000000  0.5158450000000  0.4216500000000 1.0
C      1  0.5806590000000  0.4525310000000  0.4865550000000 1.0
C      1  0.4821870000000  0.4248190000000  0.5442610000000 1.0
C      1  0.4810630000000  0.5818700000000  0.4541440000000 1.0
C      1  0.5164180000000  0.4218120000000  0.4522650000000 1.0
C      1  0.5473250000000  0.4836650000000  0.4204330000000 1.0
C      1  0.5469840000000  0.5167340000000  0.5817130000000 1.0
C      1  0.4567590000000  0.4808880000000  0.5774760000000 1.0
C      1  0.4217380000000  0.5472350000000  0.4817770000000 1.0
C      1  0.4196030000000  0.4520390000000  0.5105370000000 1.0
C      1  0.5809700000000  0.5481710000000  0.5135340000000 1.0
C      1  0.4248260000000  0.5315070000000  0.5411010000000 1.0
C      1  0.5405030000000  0.4189360000000  0.5347520000000 1.0
C      1  0.5340910000000  0.5420410000000  0.4279500000000 1.0
C      1  0.5763420000000  0.4672220000000  0.5409150000000 1.0
C      1  0.5754870000000  0.5316890000000  0.4624140000000 1.0
C      1  0.4188260000000  0.4657800000000  0.4575730000000 1.0
C      1  0.4601840000000  0.5787350000000  0.5332090000000 1.0
C      1  0.4596630000000  0.4176600000000  0.4633890000000 1.0
C      1  0.5411740000000  0.5831540000000  0.4668720000000 1.0
C      1  0.4665070000000  0.4611770000000  0.4241770000000 1.0
C      1  0.4663190000000  0.5402820000000  0.5785280000000 1.0
C      1  0.5335910000000  0.4594880000000  0.5798890000000 1.0
C      1  0.4249300000000  0.5326520000000  0.4629560000000 1.0
C      1  0.5423620000000  0.4207450000000  0.4666400000000 1.0
C      1  0.5330610000000  0.5420020000000  0.5795860000000 1.0
C      1  0.5767020000000  0.4650710000000  0.4618080000000 1.0
C      1  0.5764450000000  0.5340880000000  0.5390460000000 1.0
C      1  0.4246200000000  0.4641280000000  0.5384150000000 1.0
C      1  0.4605390000000  0.5805140000000  0.4662810000000 1.0
C      1  0.4582750000000  0.4218970000000  0.5279230000000 1.0
C      1  0.5418090000000  0.5807010000000  0.5338750000000 1.0
C      1  0.4675080000000  0.4598070000000  0.5812450000000 1.0
C      1  0.4665610000000  0.5424290000000  0.4265190000000 1.0
C      1  0.5326970000000  0.4575920000000  0.4230670000000 1.0
C      1  0.5559310000000  0.4502910000000  0.5349170000000 1.0
C      1  0.5349920000000  0.5631710000000  0.4495170000000 1.0
C      1  0.4490280000000  0.5319630000000  0.5597440000000 1.0
C      1  0.4429030000000  0.5493210000000  0.5316060000000 1.0
C      1  0.4365530000000  0.4455060000000  0.4597430000000 1.0
C      1  0.5600740000000  0.5535310000000  0.4654790000000 1.0
C      1  0.4651120000000  0.4381290000000  0.4458680000000 1.0
C      1  0.4680480000000  0.5575790000000  0.5480880000000 1.0
C      1  0.5348000000000  0.4387370000000  0.5527500000000 1.0
C      1  0.5506610000000  0.4681140000000  0.5606710000000 1.0
C      1  0.5516670000000  0.5317700000000  0.4453180000000 1.0
C      1  0.4497750000000  0.4684610000000  0.4438650000000 1.0
C      1  0.5582450000000  0.4463560000000  0.4660760000000 1.0
C      1  0.5327090000000  0.5604700000000  0.5505350000000 1.0
C      1  0.4503740000000  0.5317860000000  0.4459080000000 1.0
C      1  0.4355550000000  0.5566300000000  0.4637980000000 1.0
C      1  0.4427590000000  0.4470440000000  0.5284100000000 1.0
C      1  0.5575860000000  0.5506420000000  0.5301140000000 1.0
C      1  0.4694360000000  0.4447630000000  0.5524510000000 1.0
C      1  0.4633810000000  0.5668080000000  0.4445850000000 1.0
C      1  0.5283700000000  0.4312140000000  0.4480780000000 1.0
C      1  0.5468800000000  0.4668050000000  0.4443750000000 1.0
C      1  0.5487070000000  0.5338300000000  0.5582730000000 1.0
C      1  0.4495690000000  0.4637780000000  0.5603180000000 1.0
C      1  0.5283430000000  0.5313930000000  0.4193240000000 1.0
C      1  0.4158670000000  0.5266810000000  0.5307870000000 1.0
C      1  0.5302230000000  0.4109400000000  0.5286730000000 1.0
C      1  0.4718890000000  0.4706080000000  0.4146310000000 1.0
C      1  0.4719200000000  0.5307980000000  0.5876500000000 1.0
C      1  0.5286080000000  0.4696940000000  0.5887780000000 1.0
C      1  0.5862520000000  0.4724950000000  0.5316970000000 1.0
C      1  0.5871870000000  0.5267620000000  0.4706140000000 1.0
C      1  0.4106320000000  0.4720880000000  0.4677250000000 1.0
C      1  0.4693370000000  0.5887690000000  0.5285900000000 1.0
C      1  0.4696130000000  0.4094380000000  0.4703260000000 1.0
C      1  0.5311720000000  0.5914340000000  0.4727300000000 1.0
C      1  0.5279530000000  0.5322880000000  0.5889010000000 1.0
C      1  0.4129360000000  0.5274450000000  0.4708810000000 1.0
C      1  0.5311220000000  0.4132950000000  0.4719800000000 1.0
C      1  0.4734760000000  0.4694230000000  0.5900330000000 1.0
C      1  0.4719750000000  0.5320940000000  0.4177840000000 1.0
C      1  0.5279010000000  0.4682770000000  0.4142230000000 1.0
C      1  0.5864700000000  0.4710190000000  0.4707240000000 1.0
C      1  0.5866210000000  0.5290100000000  0.5302190000000 1.0
C      1  0.4153410000000  0.4700880000000  0.5290540000000 1.0
C      1  0.4695630000000  0.5898290000000  0.4736050000000 1.0
C      1  0.4688100000000  0.4127060000000  0.5252250000000 1.0
C      1  0.5317410000000  0.5898140000000  0.5289250000000 1.0
C      1  0.5354600000000  0.5193810000000  0.5885900000000 1.0
C      1  0.5872450000000  0.5365210000000  0.5172440000000 1.0
C      1  0.5184880000000  0.5892620000000  0.5364230000000 1.0
C      1  0.4666630000000  0.4820580000000  0.5878820000000 1.0
C      1  0.4647010000000  0.5193760000000  0.4165990000000 1.0
C      1  0.5353960000000  0.4811230000000  0.4146970000000 1.0
C      1  0.4145510000000  0.4633650000000  0.5157940000000 1.0
C      1  0.4130240000000  0.5351670000000  0.4829400000000 1.0
C      1  0.5870390000000  0.4640730000000  0.4836060000000 1.0
C      1  0.4812090000000  0.4147560000000  0.5331200000000 1.0
C      1  0.4819970000000  0.5901200000000  0.4662850000000 1.0
C      1  0.5182890000000  0.4141930000000  0.4643290000000 1.0
C      1  0.5352890000000  0.5183060000000  0.4184230000000 1.0
C      1  0.5872250000000  0.5348300000000  0.4824340000000 1.0
C      1  0.5179120000000  0.5905490000000  0.4657540000000 1.0
C      1  0.4644730000000  0.4832610000000  0.4144760000000 1.0
C      1  0.4652360000000  0.5173330000000  0.5872260000000 1.0
C      1  0.5357150000000  0.4828150000000  0.5880950000000 1.0
C      1  0.4128970000000  0.4647980000000  0.4801760000000 1.0
C      1  0.4155580000000  0.5345760000000  0.5179810000000 1.0
C      1  0.5868900000000  0.4646590000000  0.5192190000000 1.0
C      1  0.4825900000000  0.4115980000000  0.4639120000000 1.0
C      1  0.4821850000000  0.5887660000000  0.5359910000000 1.0
C      1  0.5169420000000  0.4123990000000  0.5355410000000 1.0
C      1  0.5625330000000  0.5252620000000  0.4666010000000 1.0
C      1  0.4646500000000  0.5578350000000  0.5247970000000 1.0
C      1  0.5289110000000  0.4624450000000  0.5565340000000 1.0
C      1  0.4387650000000  0.4697450000000  0.4659000000000 1.0
C      1  0.4514920000000  0.5214950000000  0.5359720000000 1.0
C      1  0.5538790000000  0.4740470000000  0.5354070000000 1.0
C      1  0.5338810000000  0.4406380000000  0.5298540000000 1.0
C      1  0.5372610000000  0.5608490000000  0.4717750000000 1.0
C      1  0.4693820000000  0.4367810000000  0.4693440000000 1.0
C      1  0.4723390000000  0.5354970000000  0.5569660000000 1.0
C      1  0.4730560000000  0.4641070000000  0.4471610000000 1.0
C      1  0.5251540000000  0.5392120000000  0.4544320000000 1.0
C      1  0.5535290000000  0.5274860000000  0.5338910000000 1.0
C      1  0.4563220000000  0.5654800000000  0.4707510000000 1.0
C      1  0.5263110000000  0.4575960000000  0.4454870000000 1.0
C      1  0.4481610000000  0.4691130000000  0.5345210000000 1.0
C      1  0.4377060000000  0.5253850000000  0.4660940000000 1.0
C      1  0.5542090000000  0.4702580000000  0.4666060000000 1.0
C      1  0.5349820000000  0.4463910000000  0.4746600000000 1.0
C      1  0.5356680000000  0.5605990000000  0.5274950000000 1.0
C      1  0.4631640000000  0.4344470000000  0.5322230000000 1.0
C      1  0.4727890000000  0.5336490000000  0.4483070000000 1.0
C      1  0.4727390000000  0.4678310000000  0.5604850000000 1.0
C      1  0.5265790000000  0.5393310000000  0.5589330000000 1.0
C      1  0.5066330000000  0.5463990000000  0.4375520000000 1.0
C      1  0.4353550000000  0.5036090000000  0.5437140000000 1.0
C      1  0.5431370000000  0.4321450000000  0.5083960000000 1.0
C      1  0.4928480000000  0.4566800000000  0.4331640000000 1.0
C      1  0.4925360000000  0.5440500000000  0.5684610000000 1.0
C      1  0.5077930000000  0.4575890000000  0.5681290000000 1.0
C      1  0.5669380000000  0.4940470000000  0.5432450000000 1.0
C      1  0.5687310000000  0.5040930000000  0.4584150000000 1.0
C      1  0.4303850000000  0.4916990000000  0.4565710000000 1.0
C      1  0.4567440000000  0.5705720000000  0.5058740000000 1.0
C      1  0.4558350000000  0.4303600000000  0.4894830000000 1.0
C      1  0.5443390000000  0.5711920000000  0.4929130000000 1.0
C      1  0.5060530000000  0.5445830000000  0.5689870000000 1.0
C      1  0.4303870000000  0.5051610000000  0.4573860000000 1.0
C      1  0.5444390000000  0.4331750000000  0.4947700000000 1.0
C      1  0.4941790000000  0.4584010000000  0.5690350000000 1.0
C      1  0.4929080000000  0.5454570000000  0.4366080000000 1.0
C      1  0.5063330000000  0.4556560000000  0.4336570000000 1.0
C      1  0.5675050000000  0.4905740000000  0.4579640000000 1.0
C      1  0.5668640000000  0.5077240000000  0.5430780000000 1.0
C      1  0.4349520000000  0.4898990000000  0.5431040000000 1.0
C      1  0.4552620000000  0.5714550000000  0.4924840000000 1.0
C      1  0.4534350000000  0.4323780000000  0.5027080000000 1.0
C      1  0.5442610000000  0.5709890000000  0.5065060000000 1.0
C      1  0.5355200000000  0.5627520000000  0.5133660000000 1.0
C      1  0.5130820000000  0.5361150000000  0.5608330000000 1.0
C      1  0.5594850000000  0.5139360000000  0.5334150000000 1.0
C      1  0.4594410000000  0.4423460000000  0.5099430000000 1.0
C      1  0.4601580000000  0.5621310000000  0.4838860000000 1.0
C      1  0.5364870000000  0.4421740000000  0.4880480000000 1.0
C      1  0.4869370000000  0.4675660000000  0.5612420000000 1.0
C      1  0.4861280000000  0.5362570000000  0.4446500000000 1.0
C      1  0.5141040000000  0.4638210000000  0.4419080000000 1.0
C      1  0.4428830000000  0.4829970000000  0.5342270000000 1.0
C      1  0.4372140000000  0.5114220000000  0.4673900000000 1.0
C      1  0.5585480000000  0.4840600000000  0.4665210000000 1.0
C      1  0.5364870000000  0.5623320000000  0.4858400000000 1.0
C      1  0.5132930000000  0.5384690000000  0.4466560000000 1.0
C      1  0.5620970000000  0.5112440000000  0.4679660000000 1.0
C      1  0.4655600000000  0.4375110000000  0.4827430000000 1.0
C      1  0.4646630000000  0.5604540000000  0.5109290000000 1.0
C      1  0.5336340000000  0.4391440000000  0.5157200000000 1.0
C      1  0.4870860000000  0.4650160000000  0.4424070000000 1.0
C      1  0.4864550000000  0.5353570000000  0.5594260000000 1.0
C      1  0.5148790000000  0.4646340000000  0.5585500000000 1.0
C      1  0.4369610000000  0.4840550000000  0.4663220000000 1.0
C      1  0.4439820000000  0.5097330000000  0.5350960000000 1.0
C      1  0.5595050000000  0.4873720000000  0.5338320000000 1.0
C      1  0.4452260000000  0.4237710000000  0.5231880000000 1.0
C      1  0.5268390000000  0.4446610000000  0.4246530000000 1.0
C      1  0.4266100000000  0.5278060000000  0.4495190000000 1.0
C      1  0.5542900000000  0.5765760000000  0.5278390000000 1.0
C      1  0.5539340000000  0.4238180000000  0.4736360000000 1.0
C      1  0.4467080000000  0.5771130000000  0.4718040000000 1.0
C      1  0.4724520000000  0.5547920000000  0.4253890000000 1.0
C      1  0.4731010000000  0.4479760000000  0.5772810000000 1.0
C      1  0.5275260000000  0.5549830000000  0.5762520000000 1.0
C      1  0.5730960000000  0.4700330000000  0.4490050000000 1.0
C      1  0.5731450000000  0.5289520000000  0.5518490000000 1.0
C      1  0.4268830000000  0.4692240000000  0.5514260000000 1.0
C      1  0.4472070000000  0.4220300000000  0.4678660000000 1.0
C      1  0.5283100000000  0.4465520000000  0.5763090000000 1.0
C      1  0.4268050000000  0.5248880000000  0.5533410000000 1.0
C      1  0.5540200000000  0.5791790000000  0.4718990000000 1.0
C      1  0.5525610000000  0.4244470000000  0.5296190000000 1.0
C      1  0.4472420000000  0.5752800000000  0.5279540000000 1.0
C      1  0.4711360000000  0.5531320000000  0.5744160000000 1.0
C      1  0.4715270000000  0.4480730000000  0.4246260000000 1.0
C      1  0.5278630000000  0.5546130000000  0.4286570000000 1.0
C      1  0.5740440000000  0.4730990000000  0.5535120000000 1.0
C      1  0.5750150000000  0.5266380000000  0.4487900000000 1.0
C      1  0.4236840000000  0.4713500000000  0.4457610000000 1.0
C      1  0.5123840000000  0.5569170000000  0.5760690000000 1.0
C      1  0.5739610000000  0.5142180000000  0.5550310000000 1.0
C      1  0.5564550000000  0.5776860000000  0.5130820000000 1.0
C      1  0.4880020000000  0.4459630000000  0.5763010000000 1.0
C      1  0.4874880000000  0.5564050000000  0.4273830000000 1.0
C      1  0.5117410000000  0.4441590000000  0.4248220000000 1.0
C      1  0.4266980000000  0.4839370000000  0.5543820000000 1.0
C      1  0.4241710000000  0.5135370000000  0.4457850000000 1.0
C      1  0.5749640000000  0.4845950000000  0.4457570000000 1.0
C      1  0.4424890000000  0.4234470000000  0.5085240000000 1.0
C      1  0.4437640000000  0.5788340000000  0.4865480000000 1.0
C      1  0.5557900000000  0.4247920000000  0.4886770000000 1.0
C      1  0.5128670000000  0.5569830000000  0.4284620000000 1.0
C      1  0.5756960000000  0.5116410000000  0.4465510000000 1.0
C      1  0.5563430000000  0.5783980000000  0.4867600000000 1.0
C      1  0.4863170000000  0.4454580000000  0.4247840000000 1.0
C      1  0.4857900000000  0.5559830000000  0.5754820000000 1.0
C      1  0.5134190000000  0.4452690000000  0.5756500000000 1.0
C      1  0.4232230000000  0.4863700000000  0.4439860000000 1.0
C      1  0.4273230000000  0.5097670000000  0.5552630000000 1.0
C      1  0.5742810000000  0.4881400000000  0.5554870000000 1.0
C      1  0.4445470000000  0.4223730000000  0.4827040000000 1.0
C      1  0.4446520000000  0.5767170000000  0.5132760000000 1.0
C      1  0.5550440000000  0.4243880000000  0.5148750000000 1.0
C      1  0.5646860000000  0.5168730000000  0.5666710000000 1.0
C      1  0.5676020000000  0.5670580000000  0.5144880000000 1.0
C      1  0.5149300000000  0.5682910000000  0.5662410000000 1.0
C      1  0.4357650000000  0.4817890000000  0.5663830000000 1.0
C      1  0.4342610000000  0.5157290000000  0.4344610000000 1.0
C      1  0.5646900000000  0.4824700000000  0.4347770000000 1.0
C      1  0.4310900000000  0.4332350000000  0.5110270000000 1.0
C      1  0.4317560000000  0.5690280000000  0.4844190000000 1.0
C      1  0.5676180000000  0.4339410000000  0.4860560000000 1.0
C      1  0.4854520000000  0.4347260000000  0.5659770000000 1.0
C      1  0.4850440000000  0.5696670000000  0.4343350000000 1.0
C      1  0.5125740000000  0.4307050000000  0.4314070000000 1.0
C      1  0.5658930000000  0.5139610000000  0.4350740000000 1.0
C      1  0.5672900000000  0.5678170000000  0.4837550000000 1.0
C      1  0.5149100000000  0.5697210000000  0.4363810000000 1.0
C      1  0.4337680000000  0.4844660000000  0.4331870000000 1.0
C      1  0.4359870000000  0.5122570000000  0.5674340000000 1.0
C      1  0.5655470000000  0.4860550000000  0.5676930000000 1.0
C      1  0.4334830000000  0.4327460000000  0.4801290000000 1.0
C      1  0.4340430000000  0.5656090000000  0.5148350000000 1.0
C      1  0.5659170000000  0.4348530000000  0.5172560000000 1.0
C      1  0.4839050000000  0.4327000000000  0.4326470000000 1.0
C      1  0.4837160000000  0.5670570000000  0.5651450000000 1.0
C      1  0.5151750000000  0.4330060000000  0.5664900000000 1.0
C      1  0.4425030000000  0.4927410000000  0.4257560000000 1.0
C      1  0.4265620000000  0.4430060000000  0.4871470000000 1.0
C      1  0.4909460000000  0.4255060000000  0.4429710000000 1.0
C      1  0.5571930000000  0.5062070000000  0.4272330000000 1.0
C      1  0.5565060000000  0.4937620000000  0.5754150000000 1.0
C      1  0.4454830000000  0.5043560000000  0.5744980000000 1.0
C      1  0.5741360000000  0.5574510000000  0.4904370000000 1.0
C      1  0.5741880000000  0.4432870000000  0.5094150000000 1.0
C      1  0.4265040000000  0.5566230000000  0.5063870000000 1.0
C      1  0.5065570000000  0.5771630000000  0.4454660000000 1.0
C      1  0.5070840000000  0.4263220000000  0.5563430000000 1.0
C      1  0.4918080000000  0.5756760000000  0.5570860000000 1.0
C      1  0.4459050000000  0.4891790000000  0.5731130000000 1.0
C      1  0.4246850000000  0.4425830000000  0.5023070000000 1.0
C      1  0.4918050000000  0.4278820000000  0.5555640000000 1.0
C      1  0.5563350000000  0.5092500000000  0.5752960000000 1.0
C      1  0.5570900000000  0.4909170000000  0.4263560000000 1.0
C      1  0.4425390000000  0.5080240000000  0.4261750000000 1.0
C      1  0.5749880000000  0.5578510000000  0.5059100000000 1.0
C      1  0.5747540000000  0.4430700000000  0.4940640000000 1.0
C      1  0.4260200000000  0.5577290000000  0.4911590000000 1.0
C      1  0.5073100000000  0.5762880000000  0.5572690000000 1.0
C      1  0.5057820000000  0.4247810000000  0.4426270000000 1.0
C      1  0.4910960000000  0.5767030000000  0.4448140000000 1.0
C      1  0.4039280000000  0.5143850000000  0.5077580000000 1.0
C      1  0.5067950000000  0.4019560000000  0.5147760000000 1.0
C      1  0.5151030000000  0.5080140000000  0.4075640000000 1.0
C      1  0.5977930000000  0.4848750000000  0.5085060000000 1.0
C      1  0.5981430000000  0.5149550000000  0.4931620000000 1.0
C      1  0.4022720000000  0.4843790000000  0.4918350000000 1.0
C      1  0.4927980000000  0.6001540000000  0.5162460000000 1.0
C      1  0.4931850000000  0.4011570000000  0.4838620000000 1.0
C      1  0.5075150000000  0.6008670000000  0.4861950000000 1.0
C      1  0.4851270000000  0.4939970000000  0.4052230000000 1.0
C      1  0.4853800000000  0.5077880000000  0.5991820000000 1.0
C      1  0.5157130000000  0.4934120000000  0.5992610000000 1.0
C      1  0.4025240000000  0.5148230000000  0.4931230000000 1.0
C      1  0.5078420000000  0.4026200000000  0.4843470000000 1.0
C      1  0.5154290000000  0.5083980000000  0.5992590000000 1.0
C      1  0.5979040000000  0.4844890000000  0.4937340000000 1.0
C      1  0.5979840000000  0.5154310000000  0.5078270000000 1.0
C      1  0.4035340000000  0.4840830000000  0.5064890000000 1.0
C      1  0.4926070000000  0.6005730000000  0.4862920000000 1.0
C      1  0.4920410000000  0.4021250000000  0.5141990000000 1.0
C      1  0.5077770000000  0.6002520000000  0.5162370000000 1.0
C      1  0.4857030000000  0.4929810000000  0.5997280000000 1.0
C      1  0.4852750000000  0.5087140000000  0.4062610000000 1.0
C      1  0.5151540000000  0.4932520000000  0.4059570000000 1.0
C      1  0.5200190000000  0.4640420000000  0.5260650000000 1.0
C      1  0.5388810000000  0.5252840000000  0.4686910000000 1.0
C      1  0.4662440000000  0.5347650000000  0.5228870000000 1.0
C      1  0.4758770000000  0.5356860000000  0.5345770000000 1.0
C      1  0.4747890000000  0.4718810000000  0.4611900000000 1.0
C      1  0.5266810000000  0.5265450000000  0.4610390000000 1.0
C      1  0.4617800000000  0.4763240000000  0.4656620000000 1.0
C      1  0.4593090000000  0.5221920000000  0.5240360000000 1.0
C      1  0.5434210000000  0.4740820000000  0.5231030000000 1.0
C      1  0.5346850000000  0.4644100000000  0.5265470000000 1.0
C      1  0.5395640000000  0.5382940000000  0.4752940000000 1.0
C      1  0.4775420000000  0.4603680000000  0.4705520000000 1.0
C      1  0.5147790000000  0.4474720000000  0.4619770000000 1.0
C      1  0.5436370000000  0.5264970000000  0.5221540000000 1.0
C      1  0.4554110000000  0.5420220000000  0.4672720000000 1.0
C      1  0.4728090000000  0.5226040000000  0.4585430000000 1.0
C      1  0.4758650000000  0.4630420000000  0.5359390000000 1.0
C      1  0.5307700000000  0.5351600000000  0.5398430000000 1.0
C      1  0.4580600000000  0.4695830000000  0.5224350000000 1.0
C      1  0.4617440000000  0.5199800000000  0.4663390000000 1.0
C      1  0.5311760000000  0.4789790000000  0.4646900000000 1.0
C      1  0.5208020000000  0.4501770000000  0.4734950000000 1.0
C      1  0.5350410000000  0.5376900000000  0.5246330000000 1.0
C      1  0.4683420000000  0.4593410000000  0.5238620000000 1.0
C      1  0.4682570000000  0.4278260000000  0.4560360000000 1.0
C      1  0.4620010000000  0.4663510000000  0.4374300000000 1.0
C      1  0.4292500000000  0.4570320000000  0.4654030000000 1.0
C      1  0.5365950000000  0.5704590000000  0.4612540000000 1.0
C      1  0.5358370000000  0.4311310000000  0.5406880000000 1.0
C      1  0.4657650000000  0.5657250000000  0.5367880000000 1.0
C      1  0.5423150000000  0.5407620000000  0.4401600000000 1.0
C      1  0.5389430000000  0.4632240000000  0.5672750000000 1.0
C      1  0.4610520000000  0.5352780000000  0.5657970000000 1.0
C      1  0.5713170000000  0.5451610000000  0.4686220000000 1.0
C      1  0.5633920000000  0.4620120000000  0.5358200000000 1.0
C      1  0.4369700000000  0.5392640000000  0.5393390000000 1.0
C      1  0.4719740000000  0.4346930000000  0.5429050000000 1.0
C      1  0.4603110000000  0.4680040000000  0.5700850000000 1.0
C      1  0.4373240000000  0.4586420000000  0.5334100000000 1.0
C      1  0.5363050000000  0.5683630000000  0.5393780000000 1.0
C      1  0.5400440000000  0.4312260000000  0.4567060000000 1.0
C      1  0.4675710000000  0.5770240000000  0.4538720000000 1.0
C      1  0.5381920000000  0.5373990000000  0.5668700000000 1.0
C      1  0.5374010000000  0.4602580000000  0.4368130000000 1.0
C      1  0.4611840000000  0.5405330000000  0.4413600000000 1.0
C      1  0.5638510000000  0.5387430000000  0.5335820000000 1.0
C      1  0.5634630000000  0.4593620000000  0.4661180000000 1.0
C      1  0.4267750000000  0.5467500000000  0.4683330000000 1.0
C      1  0.4437910000000  0.5914140000000  0.4937130000000 1.0
C      1  0.4939320000000  0.4451050000000  0.5893990000000 1.0
C      1  0.5880470000000  0.4910820000000  0.4457560000000 1.0
C      1  0.5555780000000  0.4116310000000  0.4944370000000 1.0
C      1  0.5564240000000  0.5911000000000  0.5077180000000 1.0
C      1  0.4437520000000  0.4099930000000  0.5036490000000 1.0
C      1  0.5060950000000  0.5567810000000  0.5891080000000 1.0
C      1  0.5062570000000  0.4450930000000  0.4114650000000 1.0
C      1  0.4935350000000  0.5564150000000  0.4143160000000 1.0
C      1  0.4108230000000  0.5078780000000  0.4447450000000 1.0
C      1  0.4136000000000  0.4899860000000  0.5546330000000 1.0
C      1  0.5872740000000  0.5085320000000  0.5556080000000 1.0
C      1  0.4442120000000  0.5902240000000  0.5080290000000 1.0
C      1  0.4919020000000  0.4455290000000  0.4114700000000 1.0
C      1  0.5874600000000  0.4941460000000  0.5559260000000 1.0
C      1  0.5551480000000  0.4112600000000  0.5087400000000 1.0
C      1  0.5562650000000  0.5913960000000  0.4933700000000 1.0
C      1  0.4445680000000  0.4093730000000  0.4892830000000 1.0
C      1  0.5078140000000  0.5563580000000  0.4149450000000 1.0
C      1  0.5082690000000  0.4451600000000  0.5891190000000 1.0
C      1  0.4917730000000  0.5561410000000  0.5887140000000 1.0
C      1  0.4139420000000  0.5043060000000  0.5551860000000 1.0
C      1  0.4104860000000  0.4935320000000  0.4440970000000 1.0
C      1  0.5886150000000  0.5054330000000  0.4454380000000 1.0
C      1  0.4723520000000  0.5439210000000  0.5454720000000 1.0
C      1  0.5468100000000  0.4717560000000  0.5481230000000 1.0
C      1  0.5440870000000  0.5490630000000  0.4662260000000 1.0
C      1  0.5339530000000  0.4521260000000  0.5482290000000 1.0
C      1  0.5369170000000  0.5483720000000  0.4521370000000 1.0
C      1  0.4690000000000  0.4505790000000  0.4515350000000 1.0
C      1  0.4483220000000  0.5321360000000  0.5452300000000 1.0
C      1  0.4506700000000  0.4710900000000  0.4583990000000 1.0
C      1  0.5507820000000  0.5271390000000  0.4592710000000 1.0
C      1  0.4726340000000  0.4491230000000  0.4645660000000 1.0
C      1  0.4562420000000  0.5466080000000  0.5267490000000 1.0
C      1  0.5398150000000  0.4530600000000  0.5347390000000 1.0
C      1  0.4568670000000  0.5546830000000  0.4475430000000 1.0
C      1  0.5422750000000  0.4711950000000  0.4587560000000 1.0
C      1  0.5439800000000  0.5493630000000  0.5265380000000 1.0
C      1  0.5216550000000  0.4452370000000  0.4504100000000 1.0
C      1  0.5280090000000  0.5474180000000  0.5475920000000 1.0
C      1  0.4683970000000  0.4597540000000  0.5486820000000 1.0
C      1  0.4508330000000  0.5297660000000  0.4612100000000 1.0
C      1  0.4543380000000  0.4634540000000  0.5472080000000 1.0
C      1  0.5442730000000  0.5306530000000  0.5451620000000 1.0
C      1  0.4581240000000  0.4461900000000  0.5245110000000 1.0
C      1  0.4511140000000  0.5547740000000  0.4611190000000 1.0
C      1  0.5439480000000  0.4441470000000  0.4630610000000 1.0
C      1  0.4081790000000  0.5281920000000  0.5079230000000 1.0
C      1  0.5062930000000  0.4066110000000  0.5284920000000 1.0
C      1  0.5287870000000  0.5074810000000  0.4118410000000 1.0
C      1  0.5937770000000  0.4709590000000  0.5085830000000 1.0
C      1  0.5941680000000  0.5291180000000  0.4929530000000 1.0
C      1  0.4068420000000  0.4704980000000  0.4913150000000 1.0
C      1  0.4930560000000  0.5956290000000  0.5299180000000 1.0
C      1  0.4935280000000  0.4058440000000  0.4699780000000 1.0
C      1  0.5073070000000  0.5968520000000  0.4723570000000 1.0
C      1  0.4711430000000  0.4943200000000  0.4087980000000 1.0
C      1  0.4717830000000  0.5072190000000  0.5944110000000 1.0
C      1  0.5293670000000  0.4937740000000  0.5946990000000 1.0
C      1  0.4067770000000  0.5288830000000  0.4935640000000 1.0
C      1  0.5078890000000  0.4073780000000  0.4706580000000 1.0
C      1  0.5291740000000  0.5083290000000  0.5948880000000 1.0
C      1  0.5938570000000  0.4706270000000  0.4941820000000 1.0
C      1  0.5941850000000  0.5294370000000  0.5073370000000 1.0
C      1  0.4077780000000  0.4703260000000  0.5056890000000 1.0
C      1  0.4927640000000  0.5964030000000  0.4723200000000 1.0
C      1  0.4917730000000  0.4073280000000  0.5278920000000 1.0
C      1  0.5076020000000  0.5956850000000  0.5299310000000 1.0
C      1  0.4719480000000  0.4928250000000  0.5947900000000 1.0
C      1  0.4713330000000  0.5086980000000  0.4099530000000 1.0
C      1  0.5288990000000  0.4929800000000  0.4100890000000 1.0
C      1  0.5385270000000  0.4926570000000  0.5034350000000 1.0
C      1  0.5190560000000  0.5306430000000  0.4838340000000 1.0
C      1  0.4879520000000  0.5139670000000  0.5302750000000 1.0
C      1  0.4622070000000  0.5040800000000  0.5037930000000 1.0
C      1  0.4653530000000  0.4893320000000  0.4889650000000 1.0
C      1  0.5336810000000  0.5081610000000  0.4897690000000 1.0
C      1  0.4903610000000  0.4629470000000  0.4920360000000 1.0
C      1  0.5060640000000  0.5305080000000  0.5024750000000 1.0
C      1  0.5033810000000  0.4589050000000  0.5075250000000 1.0
C      1  0.5094930000000  0.5049020000000  0.5297700000000 1.0
C      1  0.5087490000000  0.5066060000000  0.4635670000000 1.0
C      1  0.4939970000000  0.4916210000000  0.4647350000000 1.0
C      1  0.5330530000000  0.4925970000000  0.4896470000000 1.0
C      1  0.5134870000000  0.5345880000000  0.5117730000000 1.0
C      1  0.4936360000000  0.5061750000000  0.4636590000000 1.0
C      1  0.4652100000000  0.5050810000000  0.4893060000000 1.0
C      1  0.4623860000000  0.4890660000000  0.5035730000000 1.0
C      1  0.5385610000000  0.5074470000000  0.5037650000000 1.0
C      1  0.4890220000000  0.4627900000000  0.5069760000000 1.0
C      1  0.5081790000000  0.5272780000000  0.4898880000000 1.0
C      1  0.5042700000000  0.4584690000000  0.4928900000000 1.0
C      1  0.5092100000000  0.4921120000000  0.4646380000000 1.0
C      1  0.5178640000000  0.5140740000000  0.5327980000000 1.0
C      1  0.4962820000000  0.5045010000000  0.5286650000000 1.0
C      1  0.4463450000000  0.4909000000000  0.4747830000000 1.0
C      1  0.4722880000000  0.4477410000000  0.4899710000000 1.0
C      1  0.4948710000000  0.4738570000000  0.4501180000000 1.0
C      1  0.5515090000000  0.5054480000000  0.4749990000000 1.0
C      1  0.5538360000000  0.4935400000000  0.5225610000000 1.0
C      1  0.4486040000000  0.5029110000000  0.5234500000000 1.0
C      1  0.5296590000000  0.5519780000000  0.4925960000000 1.0
C      1  0.5241780000000  0.4472090000000  0.5089770000000 1.0
C      1  0.4668430000000  0.5486140000000  0.5027380000000 1.0
C      1  0.5070040000000  0.5266700000000  0.4511700000000 1.0
C      1  0.5075180000000  0.4704120000000  0.5477690000000 1.0
C      1  0.4938520000000  0.5287170000000  0.5490930000000 1.0
C      1  0.4483040000000  0.4893770000000  0.5231000000000 1.0
C      1  0.4697270000000  0.4491210000000  0.5035370000000 1.0
C      1  0.4935000000000  0.4715910000000  0.5491220000000 1.0
C      1  0.5539440000000  0.5071910000000  0.5224770000000 1.0
C      1  0.5497100000000  0.4917310000000  0.4741620000000 1.0
C      1  0.4466270000000  0.5046720000000  0.4751160000000 1.0
C      1  0.5284920000000  0.5526220000000  0.5063490000000 1.0
C      1  0.5252060000000  0.4474610000000  0.4952350000000 1.0
C      1  0.4634710000000  0.5497600000000  0.4887330000000 1.0
C      1  0.5078380000000  0.5290190000000  0.5498550000000 1.0
C      1  0.5090860000000  0.4735420000000  0.4503950000000 1.0
C      1  0.4935660000000  0.5258990000000  0.4507180000000 1.0
C      1  0.5159810000000  0.4694680000000  0.5958180000000 1.0
C      1  0.5945040000000  0.5141590000000  0.4697520000000 1.0
C      1  0.4688590000000  0.5962840000000  0.5161650000000 1.0
C      1  0.4846680000000  0.5314710000000  0.5949120000000 1.0
C      1  0.4846460000000  0.4702090000000  0.4074150000000 1.0
C      1  0.5156760000000  0.5317330000000  0.4118340000000 1.0
C      1  0.4039200000000  0.4850470000000  0.4680870000000 1.0
C      1  0.4086930000000  0.5136850000000  0.5310620000000 1.0
C      1  0.5935570000000  0.4854100000000  0.5319970000000 1.0
C      1  0.5305040000000  0.4046940000000  0.5155310000000 1.0
C      1  0.5314950000000  0.5978670000000  0.4858910000000 1.0
C      1  0.4692850000000  0.4028820000000  0.4831620000000 1.0
C      1  0.5149700000000  0.4691870000000  0.4073170000000 1.0
C      1  0.5937140000000  0.5160570000000  0.5311840000000 1.0
C      1  0.4687840000000  0.5967170000000  0.4863880000000 1.0
C      1  0.4850200000000  0.5322220000000  0.4104160000000 1.0
C      1  0.4861930000000  0.4691610000000  0.5968240000000 1.0
C      1  0.5149110000000  0.5323420000000  0.5955760000000 1.0
C      1  0.4082730000000  0.4830320000000  0.5299680000000 1.0
C      1  0.4051900000000  0.5152110000000  0.4695490000000 1.0
C      1  0.5938050000000  0.4838130000000  0.4701320000000 1.0
C      1  0.5313140000000  0.4063460000000  0.4851030000000 1.0
C      1  0.5317740000000  0.5969960000000  0.5161680000000 1.0
C      1  0.4685120000000  0.4046850000000  0.5129420000000 1.0
C      1  0.5185650000000  0.5255610000000  0.5402090000000 1.0
C      1  0.5445560000000  0.5147990000000  0.5145640000000 1.0
C      1  0.5242830000000  0.5418540000000  0.5150240000000 1.0
C      1  0.4859170000000  0.4713580000000  0.5376530000000 1.0
C      1  0.4859780000000  0.5166780000000  0.4585630000000 1.0
C      1  0.5172660000000  0.4811000000000  0.4602140000000 1.0
C      1  0.4572730000000  0.4814770000000  0.5148110000000 1.0
C      1  0.4590150000000  0.5118120000000  0.4780630000000 1.0
C      1  0.5364290000000  0.4862710000000  0.4771050000000 1.0
C      1  0.4768130000000  0.4579400000000  0.5117180000000 1.0
C      1  0.4620900000000  0.5409210000000  0.4786720000000 1.0
C      1  0.5156460000000  0.4534160000000  0.4866370000000 1.0
C      1  0.5152330000000  0.5183380000000  0.4592640000000 1.0
C      1  0.5407760000000  0.5138760000000  0.4787010000000 1.0
C      1  0.5288070000000  0.5400930000000  0.4842970000000 1.0
C      1  0.4868250000000  0.4808030000000  0.4595260000000 1.0
C      1  0.4853850000000  0.5254520000000  0.5373570000000 1.0
C      1  0.5135410000000  0.4703180000000  0.5356610000000 1.0
C      1  0.4587380000000  0.4837150000000  0.4775250000000 1.0
C      1  0.4574790000000  0.5107920000000  0.5155170000000 1.0
C      1  0.5443930000000  0.4857790000000  0.5147110000000 1.0
C      1  0.4800130000000  0.4584200000000  0.4840380000000 1.0
C      1  0.4704240000000  0.5374770000000  0.5091840000000 1.0
C      1  0.5145840000000  0.4560400000000  0.5153500000000 1.0
C      1  0.4707420000000  0.5613610000000  0.5621290000000 1.0
C      1  0.5641650000000  0.4721680000000  0.5638730000000 1.0
C      1  0.5621810000000  0.5670670000000  0.4703120000000 1.0
C      1  0.5292800000000  0.4364800000000  0.5659050000000 1.0
C      1  0.5288780000000  0.5660350000000  0.4373060000000 1.0
C      1  0.4697960000000  0.4364390000000  0.4326680000000 1.0
C      1  0.4366450000000  0.5261730000000  0.5637310000000 1.0
C      1  0.4364710000000  0.4711870000000  0.4384060000000 1.0
C      1  0.5641090000000  0.5274980000000  0.4396210000000 1.0
C      1  0.4383930000000  0.4336840000000  0.4662130000000 1.0
C      1  0.4391580000000  0.5630110000000  0.5279880000000 1.0
C      1  0.5601080000000  0.4372590000000  0.5303740000000 1.0
C      1  0.4710830000000  0.5666270000000  0.4329360000000 1.0
C      1  0.5607510000000  0.4699920000000  0.4409580000000 1.0
C      1  0.5624240000000  0.5644030000000  0.5277980000000 1.0
C      1  0.5271670000000  0.4326610000000  0.4325660000000 1.0
C      1  0.5285550000000  0.5638330000000  0.5645930000000 1.0
C      1  0.4720040000000  0.4402640000000  0.5653270000000 1.0
C      1  0.4378910000000  0.5285480000000  0.4403590000000 1.0
C      1  0.4362320000000  0.4678650000000  0.5621050000000 1.0
C      1  0.5624350000000  0.5300820000000  0.5612780000000 1.0
C      1  0.4366110000000  0.4349850000000  0.5244080000000 1.0
C      1  0.4347410000000  0.5688260000000  0.4705590000000 1.0
C      1  0.5632760000000  0.4346520000000  0.4722420000000 1.0
END
