TITL C-855863-9781-430 0.012636252038126 1000000 -3312.14810477654 0 0 480 (C1) n - 1
REM
REM in /scratch/bkarasulu/Larger-Clusters
REM
REM
REM
REM
REM
REM ./C.cell (28d0ae7d613b82ecca3ae8fabf5dfced)
REM
REM compiler GCC version 9.2.1 20190827 (Red Hat 9.2.1-1)
REM options -cpp -mtune=generic -march=x86-64 -g -O0 -fpre-include=/usr/include/finclude/math-vector-fortran.h
REM seed 410213171 806344817 -1964160237 709249421 1611469458 -924181694 1979769456 705183252 1547964088 -1534996615 -1134469704 -1955627281 -1074922690 1527943459 -717565770 1443144638 -1439709058 427864333 2145067327 -83028861 -172108792 -1557975750 -2056002689 1291826323 -385589125 1075601455 -367981705 871200563 837239430 1934292904 827084758 8418101 -1498450454
REM
CELL 1.54180  100.00000  100.00000  100.00000   90.00000   90.00000   90.00000
LATT -1
SFAC C  
C      1  0.4886750000000  0.4945440000000  0.4278890000000 1.0
C      1  0.4278170000000  0.4852090000000  0.4976080000000 1.0
C      1  0.4915730000000  0.4251720000000  0.4845890000000 1.0
C      1  0.4907320000000  0.5085350000000  0.5700270000000 1.0
C      1  0.5141040000000  0.5061800000000  0.4250260000000 1.0
C      1  0.5180030000000  0.4987500000000  0.5692320000000 1.0
C      1  0.4293480000000  0.5103050000000  0.5108300000000 1.0
C      1  0.5717730000000  0.5091900000000  0.4930630000000 1.0
C      1  0.5685990000000  0.4843780000000  0.5059830000000 1.0
C      1  0.4945880000000  0.5720690000000  0.5108000000000 1.0
C      1  0.5081350000000  0.5703690000000  0.4832440000000 1.0
C      1  0.5045110000000  0.4285090000000  0.5135830000000 1.0
C      1  0.5145450000000  0.4933760000000  0.4289450000000 1.0
C      1  0.5733100000000  0.4834750000000  0.4932220000000 1.0
C      1  0.5047430000000  0.4276800000000  0.4864690000000 1.0
C      1  0.5207670000000  0.5105130000000  0.5608750000000 1.0
C      1  0.4867040000000  0.5073630000000  0.4246390000000 1.0
C      1  0.4892290000000  0.4957020000000  0.5738690000000 1.0
C      1  0.5731720000000  0.5109540000000  0.5064260000000 1.0
C      1  0.4258520000000  0.5123610000000  0.4976180000000 1.0
C      1  0.4310820000000  0.4850880000000  0.5109520000000 1.0
C      1  0.5078050000000  0.5692180000000  0.5087120000000 1.0
C      1  0.4953400000000  0.5663000000000  0.4846240000000 1.0
C      1  0.4915370000000  0.4247440000000  0.5109890000000 1.0
C      1  0.4547330000000  0.4513410000000  0.5818600000000 1.0
C      1  0.5817090000000  0.4506310000000  0.4525930000000 1.0
C      1  0.4576960000000  0.5832720000000  0.4531980000000 1.0
C      1  0.4515780000000  0.5467790000000  0.4198630000000 1.0
C      1  0.5368140000000  0.5485130000000  0.5852640000000 1.0
C      1  0.5433130000000  0.4533730000000  0.4185680000000 1.0
C      1  0.5770070000000  0.5477490000000  0.5503110000000 1.0
C      1  0.4172210000000  0.5512110000000  0.4558920000000 1.0
C      1  0.4181150000000  0.4507570000000  0.5474870000000 1.0
C      1  0.4550600000000  0.4171680000000  0.5475590000000 1.0
C      1  0.5446970000000  0.4165550000000  0.4547600000000 1.0
C      1  0.5370390000000  0.5911400000000  0.5519260000000 1.0
C      1  0.5449830000000  0.4529090000000  0.5797000000000 1.0
C      1  0.4198280000000  0.4533550000000  0.4542230000000 1.0
C      1  0.5478610000000  0.5814070000000  0.4468450000000 1.0
C      1  0.5490600000000  0.5456960000000  0.4170140000000 1.0
C      1  0.4531580000000  0.5462550000000  0.5803810000000 1.0
C      1  0.4548740000000  0.4560470000000  0.4178300000000 1.0
C      1  0.4083390000000  0.5498580000000  0.5442390000000 1.0
C      1  0.5831960000000  0.5452650000000  0.4552210000000 1.0
C      1  0.5823130000000  0.4552830000000  0.5457210000000 1.0
C      1  0.5466520000000  0.4185100000000  0.5423030000000 1.0
C      1  0.4540730000000  0.4184970000000  0.4497770000000 1.0
C      1  0.4504990000000  0.5808290000000  0.5453030000000 1.0
C      1  0.4734620000000  0.4520470000000  0.4716750000000 1.0
C      1  0.4743030000000  0.4758300000000  0.4499480000000 1.0
C      1  0.4497230000000  0.4726370000000  0.4759930000000 1.0
C      1  0.4712940000000  0.5519240000000  0.5252500000000 1.0
C      1  0.5297990000000  0.5468770000000  0.4703790000000 1.0
C      1  0.5267270000000  0.4482040000000  0.5255570000000 1.0
C      1  0.4747650000000  0.5267910000000  0.5516560000000 1.0
C      1  0.5276180000000  0.5241490000000  0.4482700000000 1.0
C      1  0.5283340000000  0.4740840000000  0.5510620000000 1.0
C      1  0.4500060000000  0.5274810000000  0.5302760000000 1.0
C      1  0.5528810000000  0.5244660000000  0.4748000000000 1.0
C      1  0.5491800000000  0.4708950000000  0.5262520000000 1.0
C      1  0.5254950000000  0.4482070000000  0.4734690000000 1.0
C      1  0.5274530000000  0.4735150000000  0.4482800000000 1.0
C      1  0.5497350000000  0.4691890000000  0.4714410000000 1.0
C      1  0.5259040000000  0.5509360000000  0.5246830000000 1.0
C      1  0.4745900000000  0.5477980000000  0.4713400000000 1.0
C      1  0.4757950000000  0.4481320000000  0.5262140000000 1.0
C      1  0.5275260000000  0.5302830000000  0.5490010000000 1.0
C      1  0.4744730000000  0.5243020000000  0.4498060000000 1.0
C      1  0.4758420000000  0.4732960000000  0.5528000000000 1.0
C      1  0.5529630000000  0.5256390000000  0.5289910000000 1.0
C      1  0.4477670000000  0.5268310000000  0.4753800000000 1.0
C      1  0.4520520000000  0.4703180000000  0.5305910000000 1.0
C      1  0.4154100000000  0.5172820000000  0.4632060000000 1.0
C      1  0.4609920000000  0.4138600000000  0.5134140000000 1.0
C      1  0.5150280000000  0.4665190000000  0.4017890000000 1.0
C      1  0.4143630000000  0.4857240000000  0.5392460000000 1.0
C      1  0.5851650000000  0.4846990000000  0.4566540000000 1.0
C      1  0.5894930000000  0.5147650000000  0.5487940000000 1.0
C      1  0.4640200000000  0.5847980000000  0.4877530000000 1.0
C      1  0.5075120000000  0.6000790000000  0.5308910000000 1.0
C      1  0.5345960000000  0.4153620000000  0.4891240000000 1.0
C      1  0.5134600000000  0.5235170000000  0.5991590000000 1.0
C      1  0.4844040000000  0.5382750000000  0.4125510000000 1.0
C      1  0.4878890000000  0.4660670000000  0.5896070000000 1.0
C      1  0.5856740000000  0.5111780000000  0.4581070000000 1.0
C      1  0.5355590000000  0.4024000000000  0.5122510000000 1.0
C      1  0.4892990000000  0.4662500000000  0.4149440000000 1.0
C      1  0.5833380000000  0.4899510000000  0.5367940000000 1.0
C      1  0.4173400000000  0.4870090000000  0.4631410000000 1.0
C      1  0.3992510000000  0.5309570000000  0.5132520000000 1.0
C      1  0.5382440000000  0.5948240000000  0.4785310000000 1.0
C      1  0.4557610000000  0.5918800000000  0.5130570000000 1.0
C      1  0.4598080000000  0.4143240000000  0.4837130000000 1.0
C      1  0.4893070000000  0.5446110000000  0.5763980000000 1.0
C      1  0.5139980000000  0.5372880000000  0.4122770000000 1.0
C      1  0.5185340000000  0.4723380000000  0.5957040000000 1.0
C      1  0.4255850000000  0.4568260000000  0.4781320000000 1.0
C      1  0.4764550000000  0.4265130000000  0.4560330000000 1.0
C      1  0.4586390000000  0.4784870000000  0.4257650000000 1.0
C      1  0.4190850000000  0.5453430000000  0.5234620000000 1.0
C      1  0.5771000000000  0.5410670000000  0.4782750000000 1.0
C      1  0.5762570000000  0.4587830000000  0.5226350000000 1.0
C      1  0.4732900000000  0.5755020000000  0.5405310000000 1.0
C      1  0.5260540000000  0.5735820000000  0.4542140000000 1.0
C      1  0.5234170000000  0.4230660000000  0.5385190000000 1.0
C      1  0.4607590000000  0.5237580000000  0.5776940000000 1.0
C      1  0.5432950000000  0.5233410000000  0.4235500000000 1.0
C      1  0.5469070000000  0.4759460000000  0.5740740000000 1.0
C      1  0.5759420000000  0.4554970000000  0.4756200000000 1.0
C      1  0.5218260000000  0.4237930000000  0.4582830000000 1.0
C      1  0.5412060000000  0.4771580000000  0.4220620000000 1.0
C      1  0.5763140000000  0.5413730000000  0.5275310000000 1.0
C      1  0.4225290000000  0.5450370000000  0.4787280000000 1.0
C      1  0.4249060000000  0.4566990000000  0.5250790000000 1.0
C      1  0.5177900000000  0.5792590000000  0.5449350000000 1.0
C      1  0.4798030000000  0.5752020000000  0.4581760000000 1.0
C      1  0.4782650000000  0.4240640000000  0.5421090000000 1.0
C      1  0.5415650000000  0.5279250000000  0.5761130000000 1.0
C      1  0.4557780000000  0.5237820000000  0.4271740000000 1.0
C      1  0.4581840000000  0.4742890000000  0.5755160000000 1.0
C      1  0.5723910000000  0.5571760000000  0.5570410000000 1.0
C      1  0.5455980000000  0.5843720000000  0.5578220000000 1.0
C      1  0.5445280000000  0.5574780000000  0.5813210000000 1.0
C      1  0.5789960000000  0.4424210000000  0.4437940000000 1.0
C      1  0.4199770000000  0.4424230000000  0.5563410000000 1.0
C      1  0.4200090000000  0.5598060000000  0.4475490000000 1.0
C      1  0.5532020000000  0.4182370000000  0.4459190000000 1.0
C      1  0.4460150000000  0.4179030000000  0.5559490000000 1.0
C      1  0.4480300000000  0.5820860000000  0.4456940000000 1.0
C      1  0.5513800000000  0.4442250000000  0.4208310000000 1.0
C      1  0.4459290000000  0.4427530000000  0.5808190000000 1.0
C      1  0.4437830000000  0.5562180000000  0.4215210000000 1.0
C      1  0.4143290000000  0.5552560000000  0.5536550000000 1.0
C      1  0.4417590000000  0.5782580000000  0.5536340000000 1.0
C      1  0.4431490000000  0.5530890000000  0.5780460000000 1.0
C      1  0.4210240000000  0.4456930000000  0.4446430000000 1.0
C      1  0.5801610000000  0.4466770000000  0.5543570000000 1.0
C      1  0.5821050000000  0.5533940000000  0.4460310000000 1.0
C      1  0.4453500000000  0.4204120000000  0.4412480000000 1.0
C      1  0.5553450000000  0.4207540000000  0.5508370000000 1.0
C      1  0.5580290000000  0.5791040000000  0.4403360000000 1.0
C      1  0.4461470000000  0.4473720000000  0.4188680000000 1.0
C      1  0.5527920000000  0.4435690000000  0.5773140000000 1.0
C      1  0.5586760000000  0.5532650000000  0.4186090000000 1.0
C      1  0.5082810000000  0.4941780000000  0.5217110000000 1.0
C      1  0.5228350000000  0.5065010000000  0.4947800000000 1.0
C      1  0.4914030000000  0.5233850000000  0.5059080000000 1.0
C      1  0.5000840000000  0.5051160000000  0.4858390000000 1.0
C      1  0.4873880000000  0.5056920000000  0.5199320000000 1.0
C      1  0.4910550000000  0.4919330000000  0.4862860000000 1.0
C      1  0.5294010000000  0.4905840000000  0.5124580000000 1.0
C      1  0.4781710000000  0.4932920000000  0.4942440000000 1.0
C      1  0.4810820000000  0.5128590000000  0.5086830000000 1.0
C      1  0.4975340000000  0.4809100000000  0.4944320000000 1.0
C      1  0.5151170000000  0.4840380000000  0.5125980000000 1.0
C      1  0.5100490000000  0.5150520000000  0.4929820000000 1.0
C      1  0.4932990000000  0.4922110000000  0.5208430000000 1.0
C      1  0.4769480000000  0.5079030000000  0.4946400000000 1.0
C      1  0.5060800000000  0.5192900000000  0.5074670000000 1.0
C      1  0.4871630000000  0.5133690000000  0.4846480000000 1.0
C      1  0.5129830000000  0.5084090000000  0.5174390000000 1.0
C      1  0.5120460000000  0.4983850000000  0.4777260000000 1.0
C      1  0.4789280000000  0.4874100000000  0.5072840000000 1.0
C      1  0.5197410000000  0.4924400000000  0.4892500000000 1.0
C      1  0.5254330000000  0.5051850000000  0.5091940000000 1.0
C      1  0.5112350000000  0.4849220000000  0.4982680000000 1.0
C      1  0.4911870000000  0.4814530000000  0.5094730000000 1.0
C      1  0.4883620000000  0.5273060000000  0.4909980000000 1.0
C      1  0.5145240000000  0.4308490000000  0.5419410000000 1.0
C      1  0.5453890000000  0.5137390000000  0.4309110000000 1.0
C      1  0.4291360000000  0.5434090000000  0.5167970000000 1.0
C      1  0.5167200000000  0.5657120000000  0.4542790000000 1.0
C      1  0.4831080000000  0.5684580000000  0.5429520000000 1.0
C      1  0.4863960000000  0.4336900000000  0.4554200000000 1.0
C      1  0.5510240000000  0.4848770000000  0.5661360000000 1.0
C      1  0.4561250000000  0.4874750000000  0.4337950000000 1.0
C      1  0.4589650000000  0.5131030000000  0.5719970000000 1.0
C      1  0.4327160000000  0.4554230000000  0.4879810000000 1.0
C      1  0.5692360000000  0.4557750000000  0.5129970000000 1.0
C      1  0.5703020000000  0.5421370000000  0.4883970000000 1.0
C      1  0.4883050000000  0.4312150000000  0.5430970000000 1.0
C      1  0.4541530000000  0.5140700000000  0.4346140000000 1.0
C      1  0.5692610000000  0.5428830000000  0.5175520000000 1.0
C      1  0.4885810000000  0.5671040000000  0.4554850000000 1.0
C      1  0.5113020000000  0.5691770000000  0.5426270000000 1.0
C      1  0.5129330000000  0.4319490000000  0.4559520000000 1.0
C      1  0.4565150000000  0.4846590000000  0.5691620000000 1.0
C      1  0.5439270000000  0.4867790000000  0.4291520000000 1.0
C      1  0.5480790000000  0.5236890000000  0.5663590000000 1.0
C      1  0.5686650000000  0.4543420000000  0.4853800000000 1.0
C      1  0.4325450000000  0.4552090000000  0.5156570000000 1.0
C      1  0.4298240000000  0.5452880000000  0.4885570000000 1.0
C      1  0.5091130000000  0.4783490000000  0.5403510000000 1.0
C      1  0.5408820000000  0.5054660000000  0.4779320000000 1.0
C      1  0.4754920000000  0.5399340000000  0.5078980000000 1.0
C      1  0.5090240000000  0.5170080000000  0.4602340000000 1.0
C      1  0.4927560000000  0.5232420000000  0.5375190000000 1.0
C      1  0.4929260000000  0.4822480000000  0.4622870000000 1.0
C      1  0.5381810000000  0.4929850000000  0.5245360000000 1.0
C      1  0.4596070000000  0.4919100000000  0.4799690000000 1.0
C      1  0.4620980000000  0.5076490000000  0.5250700000000 1.0
C      1  0.4812120000000  0.4614220000000  0.4923780000000 1.0
C      1  0.5199310000000  0.4606080000000  0.5075040000000 1.0
C      1  0.5236830000000  0.5360570000000  0.4906070000000 1.0
C      1  0.4939090000000  0.4778720000000  0.5407740000000 1.0
C      1  0.4587580000000  0.5072710000000  0.4797930000000 1.0
C      1  0.5231900000000  0.5375020000000  0.5061940000000 1.0
C      1  0.4930460000000  0.5176810000000  0.4610270000000 1.0
C      1  0.5082890000000  0.5247500000000  0.5361580000000 1.0
C      1  0.5086390000000  0.4801730000000  0.4608170000000 1.0
C      1  0.4626460000000  0.4912050000000  0.5251900000000 1.0
C      1  0.5402280000000  0.4895510000000  0.4773050000000 1.0
C      1  0.5410350000000  0.5083850000000  0.5255630000000 1.0
C      1  0.5189850000000  0.4601190000000  0.4917830000000 1.0
C      1  0.4818050000000  0.4604230000000  0.5079900000000 1.0
C      1  0.4761610000000  0.5364880000000  0.4928530000000 1.0
C      1  0.5124960000000  0.5491370000000  0.5302220000000 1.0
C      1  0.5317750000000  0.5156720000000  0.5509790000000 1.0
C      1  0.5460810000000  0.5354230000000  0.5183850000000 1.0
C      1  0.5175010000000  0.4553210000000  0.4624250000000 1.0
C      1  0.4848060000000  0.4545540000000  0.5369880000000 1.0
C      1  0.4867730000000  0.5435640000000  0.4616100000000 1.0
C      1  0.5356590000000  0.4852440000000  0.4512460000000 1.0
C      1  0.4687460000000  0.4856800000000  0.5494830000000 1.0
C      1  0.4630240000000  0.5168840000000  0.4568820000000 1.0
C      1  0.5447890000000  0.4604890000000  0.4836430000000 1.0
C      1  0.4560710000000  0.4616030000000  0.5174210000000 1.0
C      1  0.4505310000000  0.5334420000000  0.4880330000000 1.0
C      1  0.4816380000000  0.5458680000000  0.5352840000000 1.0
C      1  0.4685840000000  0.5137840000000  0.5501120000000 1.0
C      1  0.4522700000000  0.5363690000000  0.5175270000000 1.0
C      1  0.4853900000000  0.4569230000000  0.4627910000000 1.0
C      1  0.5185670000000  0.4547140000000  0.5369510000000 1.0
C      1  0.5175820000000  0.5425670000000  0.4615010000000 1.0
C      1  0.4632200000000  0.4835440000000  0.4567640000000 1.0
C      1  0.5348870000000  0.4868760000000  0.5483910000000 1.0
C      1  0.5388370000000  0.5157870000000  0.4545470000000 1.0
C      1  0.4539710000000  0.4655100000000  0.4879230000000 1.0
C      1  0.5455450000000  0.4611960000000  0.5141440000000 1.0
C      1  0.5498060000000  0.5309910000000  0.4876380000000 1.0
C      1  0.4977920000000  0.4012150000000  0.4773880000000 1.0
C      1  0.4783090000000  0.5073090000000  0.4133710000000 1.0
C      1  0.4032290000000  0.4796470000000  0.5021400000000 1.0
C      1  0.4988660000000  0.5941730000000  0.5229670000000 1.0
C      1  0.5127540000000  0.5960880000000  0.4793590000000 1.0
C      1  0.4913890000000  0.4112020000000  0.5145580000000 1.0
C      1  0.4835540000000  0.4931300000000  0.5861070000000 1.0
C      1  0.5157380000000  0.4952900000000  0.4031640000000 1.0
C      1  0.5192570000000  0.4983480000000  0.5961740000000 1.0
C      1  0.4134740000000  0.5189280000000  0.4959170000000 1.0
C      1  0.5843490000000  0.5189020000000  0.5083020000000 1.0
C      1  0.5869180000000  0.4814020000000  0.4943960000000 1.0
C      1  0.4919550000000  0.4118810000000  0.4803120000000 1.0
C      1  0.5165270000000  0.5055700000000  0.4108310000000 1.0
C      1  0.5983060000000  0.4799480000000  0.4993890000000 1.0
C      1  0.4927810000000  0.5845640000000  0.5171290000000 1.0
C      1  0.5108870000000  0.5834310000000  0.4796210000000 1.0
C      1  0.4982880000000  0.4012520000000  0.5176760000000 1.0
C      1  0.5186120000000  0.4993390000000  0.5833130000000 1.0
C      1  0.4689970000000  0.5022340000000  0.4063810000000 1.0
C      1  0.4813590000000  0.4899000000000  0.5981500000000 1.0
C      1  0.5945420000000  0.5261180000000  0.5074930000000 1.0
C      1  0.4044520000000  0.5242670000000  0.5033860000000 1.0
C      1  0.4144350000000  0.4818290000000  0.4970070000000 1.0
C      1  0.5640190000000  0.4885830000000  0.4824620000000 1.0
C      1  0.4861320000000  0.5589340000000  0.4910740000000 1.0
C      1  0.4957850000000  0.4863530000000  0.5637670000000 1.0
C      1  0.5632040000000  0.5051690000000  0.5160040000000 1.0
C      1  0.4361680000000  0.5064570000000  0.4878510000000 1.0
C      1  0.4395480000000  0.4908350000000  0.5198340000000 1.0
C      1  0.4832990000000  0.4356070000000  0.5047190000000 1.0
C      1  0.5128890000000  0.4363360000000  0.4926610000000 1.0
C      1  0.5171220000000  0.5607710000000  0.5033990000000 1.0
C      1  0.4935850000000  0.5158750000000  0.4352830000000 1.0
C      1  0.5100480000000  0.5193050000000  0.5590640000000 1.0
C      1  0.5082530000000  0.4852830000000  0.4374270000000 1.0
C      1  0.4368430000000  0.4922580000000  0.4877300000000 1.0
C      1  0.5184280000000  0.5604490000000  0.4889680000000 1.0
C      1  0.5097700000000  0.4877390000000  0.5621870000000 1.0
C      1  0.4389660000000  0.5061120000000  0.5194420000000 1.0
C      1  0.5640700000000  0.5032100000000  0.4837190000000 1.0
C      1  0.5609050000000  0.4908280000000  0.5149840000000 1.0
C      1  0.5129180000000  0.4369830000000  0.5072770000000 1.0
C      1  0.4825950000000  0.4363960000000  0.4905420000000 1.0
C      1  0.4848990000000  0.5618760000000  0.5052030000000 1.0
C      1  0.5077160000000  0.5152230000000  0.4350390000000 1.0
C      1  0.4958810000000  0.5169980000000  0.5609380000000 1.0
C      1  0.4937350000000  0.4868680000000  0.4377160000000 1.0
C      1  0.4603240000000  0.4611780000000  0.5387300000000 1.0
C      1  0.5390400000000  0.4510490000000  0.4729200000000 1.0
C      1  0.4751560000000  0.5376380000000  0.4533390000000 1.0
C      1  0.4565870000000  0.5290270000000  0.4646250000000 1.0
C      1  0.5488590000000  0.5283980000000  0.5422800000000 1.0
C      1  0.5421170000000  0.4606550000000  0.4623810000000 1.0
C      1  0.5370270000000  0.5433900000000  0.5287140000000 1.0
C      1  0.4650360000000  0.5403000000000  0.4632890000000 1.0
C      1  0.4626150000000  0.4522020000000  0.5275650000000 1.0
C      1  0.4728510000000  0.4615960000000  0.5457970000000 1.0
C      1  0.5300160000000  0.4617620000000  0.4549200000000 1.0
C      1  0.5374090000000  0.5370650000000  0.5413790000000 1.0
C      1  0.5423430000000  0.4618630000000  0.5356150000000 1.0
C      1  0.4640330000000  0.4589830000000  0.4628170000000 1.0
C      1  0.5284810000000  0.5373770000000  0.4518910000000 1.0
C      1  0.5465040000000  0.5277690000000  0.4627030000000 1.0
C      1  0.4576880000000  0.5372410000000  0.5381060000000 1.0
C      1  0.4560630000000  0.4707750000000  0.4638570000000 1.0
C      1  0.4585930000000  0.5466850000000  0.5272220000000 1.0
C      1  0.5390020000000  0.5397810000000  0.4617180000000 1.0
C      1  0.5398450000000  0.4521610000000  0.5252180000000 1.0
C      1  0.5307520000000  0.4622900000000  0.5440030000000 1.0
C      1  0.4743860000000  0.4624010000000  0.4532960000000 1.0
C      1  0.4705290000000  0.5378660000000  0.5443320000000 1.0
C      1  0.4369180000000  0.4280100000000  0.4336800000000 1.0
C      1  0.4372020000000  0.4390610000000  0.4249960000000 1.0
C      1  0.4273940000000  0.4382660000000  0.4350820000000 1.0
C      1  0.4335840000000  0.5710530000000  0.5618830000000 1.0
C      1  0.5677310000000  0.5717260000000  0.4341030000000 1.0
C      1  0.5631350000000  0.4272990000000  0.5598360000000 1.0
C      1  0.4339040000000  0.5606080000000  0.5712750000000 1.0
C      1  0.5679080000000  0.5607440000000  0.4252570000000 1.0
C      1  0.5621880000000  0.4364610000000  0.5704900000000 1.0
C      1  0.4233840000000  0.5613400000000  0.5619460000000 1.0
C      1  0.5767110000000  0.5611880000000  0.4362590000000 1.0
C      1  0.5727520000000  0.4374840000000  0.5612570000000 1.0
C      1  0.5605020000000  0.4253950000000  0.4368860000000 1.0
C      1  0.5598910000000  0.4356480000000  0.4272260000000 1.0
C      1  0.5708780000000  0.4347920000000  0.4359790000000 1.0
C      1  0.5536970000000  0.5753460000000  0.5641380000000 1.0
C      1  0.4384780000000  0.5759210000000  0.4380590000000 1.0
C      1  0.4373700000000  0.4244300000000  0.5643030000000 1.0
C      1  0.5529110000000  0.5649060000000  0.5736620000000 1.0
C      1  0.4368900000000  0.5656910000000  0.4285700000000 1.0
C      1  0.4372760000000  0.4344640000000  0.5742120000000 1.0
C      1  0.5628650000000  0.5646640000000  0.5636990000000 1.0
C      1  0.4274680000000  0.5673160000000  0.4388410000000 1.0
C      1  0.4271080000000  0.4340470000000  0.5645240000000 1.0
C      1  0.5328920000000  0.5349430000000  0.5847310000000 1.0
C      1  0.5797230000000  0.5379020000000  0.5406970000000 1.0
C      1  0.5246320000000  0.5917320000000  0.5457640000000 1.0
C      1  0.5353820000000  0.4650520000000  0.4175640000000 1.0
C      1  0.4633010000000  0.4622470000000  0.5806040000000 1.0
C      1  0.4596900000000  0.5357200000000  0.4210170000000 1.0
C      1  0.5811010000000  0.4596040000000  0.4630080000000 1.0
C      1  0.4183610000000  0.4599300000000  0.5370870000000 1.0
C      1  0.4156540000000  0.5428800000000  0.4666730000000 1.0
C      1  0.5336740000000  0.4180220000000  0.4629960000000 1.0
C      1  0.4655660000000  0.4187770000000  0.5388740000000 1.0
C      1  0.4683900000000  0.5826450000000  0.4618340000000 1.0
C      1  0.4638690000000  0.5373010000000  0.5798230000000 1.0
C      1  0.4073420000000  0.5448890000000  0.5313080000000 1.0
C      1  0.4611300000000  0.5810100000000  0.5362880000000 1.0
C      1  0.4632860000000  0.4669430000000  0.4195180000000 1.0
C      1  0.5395190000000  0.4659480000000  0.5802880000000 1.0
C      1  0.5396200000000  0.5356120000000  0.4179870000000 1.0
C      1  0.4207830000000  0.4611920000000  0.4655210000000 1.0
C      1  0.5815020000000  0.4637270000000  0.5347370000000 1.0
C      1  0.5819190000000  0.5362110000000  0.4656090000000 1.0
C      1  0.4644430000000  0.4197630000000  0.4585800000000 1.0
C      1  0.5355000000000  0.4175850000000  0.5336580000000 1.0
C      1  0.5369400000000  0.5826090000000  0.4551100000000 1.0
C      1  0.4978870000000  0.5339960000000  0.4828790000000 1.0
C      1  0.4870690000000  0.4880390000000  0.5336740000000 1.0
C      1  0.5323180000000  0.4835200000000  0.4887490000000 1.0
C      1  0.4934970000000  0.4681430000000  0.5154320000000 1.0
C      1  0.5079950000000  0.4651070000000  0.4836620000000 1.0
C      1  0.5111600000000  0.5321560000000  0.5123240000000 1.0
C      1  0.4842230000000  0.5087950000000  0.4704170000000 1.0
C      1  0.5170770000000  0.5144370000000  0.5302460000000 1.0
C      1  0.5166970000000  0.4914180000000  0.4654230000000 1.0
C      1  0.5355400000000  0.5142410000000  0.5134780000000 1.0
C      1  0.4644220000000  0.5137060000000  0.4912180000000 1.0
C      1  0.4678440000000  0.4831120000000  0.5140900000000 1.0
C      1  0.5117380000000  0.5285560000000  0.4842330000000 1.0
C      1  0.5144330000000  0.4904590000000  0.5344700000000 1.0
C      1  0.4671830000000  0.4850910000000  0.4901310000000 1.0
C      1  0.5105610000000  0.4693540000000  0.5159980000000 1.0
C      1  0.4937110000000  0.4683120000000  0.4860240000000 1.0
C      1  0.4872860000000  0.5343160000000  0.5140070000000 1.0
C      1  0.5173570000000  0.5065730000000  0.4666180000000 1.0
C      1  0.4855700000000  0.5117640000000  0.5324820000000 1.0
C      1  0.4855810000000  0.4926560000000  0.4712200000000 1.0
C      1  0.4681720000000  0.5167510000000  0.5145330000000 1.0
C      1  0.5346140000000  0.5125240000000  0.4891250000000 1.0
C      1  0.5364670000000  0.4824500000000  0.5031460000000 1.0
C      1  0.4949880000000  0.5322270000000  0.4679710000000 1.0
C      1  0.4731040000000  0.4919310000000  0.5369500000000 1.0
C      1  0.5326360000000  0.4674990000000  0.4902330000000 1.0
C      1  0.4937790000000  0.4655320000000  0.5309300000000 1.0
C      1  0.5088220000000  0.4667880000000  0.4691440000000 1.0
C      1  0.5066220000000  0.5364410000000  0.5259450000000 1.0
C      1  0.4688790000000  0.5077960000000  0.4675730000000 1.0
C      1  0.5295540000000  0.5092170000000  0.5367180000000 1.0
C      1  0.5319150000000  0.4909440000000  0.4640970000000 1.0
C      1  0.5360760000000  0.5279860000000  0.5087050000000 1.0
C      1  0.4627610000000  0.5281340000000  0.4940430000000 1.0
C      1  0.4671280000000  0.4691810000000  0.5094880000000 1.0
C      1  0.5105490000000  0.5301850000000  0.4680330000000 1.0
C      1  0.5287080000000  0.4939050000000  0.5369780000000 1.0
C      1  0.4665910000000  0.4706770000000  0.4936980000000 1.0
C      1  0.5095860000000  0.4659190000000  0.5310050000000 1.0
C      1  0.4928400000000  0.4684440000000  0.4696430000000 1.0
C      1  0.4909610000000  0.5356100000000  0.5278230000000 1.0
C      1  0.5324150000000  0.5067040000000  0.4650820000000 1.0
C      1  0.4722740000000  0.5075850000000  0.5372840000000 1.0
C      1  0.4695760000000  0.4923220000000  0.4679460000000 1.0
C      1  0.4634840000000  0.5299100000000  0.5094300000000 1.0
C      1  0.5368200000000  0.5266980000000  0.4927510000000 1.0
C      1  0.5343420000000  0.4675510000000  0.5057480000000 1.0
C      1  0.5247820000000  0.5514570000000  0.5106890000000 1.0
C      1  0.5134690000000  0.5293650000000  0.5494460000000 1.0
C      1  0.5554360000000  0.5122240000000  0.5253990000000 1.0
C      1  0.5204580000000  0.4464030000000  0.4865110000000 1.0
C      1  0.4800360000000  0.4464670000000  0.5127870000000 1.0
C      1  0.4770150000000  0.5492520000000  0.4849180000000 1.0
C      1  0.5136880000000  0.4768760000000  0.4470660000000 1.0
C      1  0.4893420000000  0.4772130000000  0.5551220000000 1.0
C      1  0.4870200000000  0.5185440000000  0.4473100000000 1.0
C      1  0.5534720000000  0.4825730000000  0.4750450000000 1.0
C      1  0.4495790000000  0.4842400000000  0.5281290000000 1.0
C      1  0.4448680000000  0.5129160000000  0.4786390000000 1.0
C      1  0.4753650000000  0.5542040000000  0.5119150000000 1.0
C      1  0.4887690000000  0.5250910000000  0.5517960000000 1.0
C      1  0.4486210000000  0.5134690000000  0.5275780000000 1.0
C      1  0.4774140000000  0.4484000000000  0.4848720000000 1.0
C      1  0.5212460000000  0.4467590000000  0.5128110000000 1.0
C      1  0.5259870000000  0.5496070000000  0.4837170000000 1.0
C      1  0.4869350000000  0.4815500000000  0.4485690000000 1.0
C      1  0.5149720000000  0.4775720000000  0.5539570000000 1.0
C      1  0.5144360000000  0.5192670000000  0.4463740000000 1.0
C      1  0.4461100000000  0.4861300000000  0.4792230000000 1.0
C      1  0.5510350000000  0.4846270000000  0.5240880000000 1.0
C      1  0.5545850000000  0.5103910000000  0.4763440000000 1.0
C      1  0.5438130000000  0.5070460000000  0.4428970000000 1.0
C      1  0.4406450000000  0.5403180000000  0.5097030000000 1.0
C      1  0.5088590000000  0.4437080000000  0.5418500000000 1.0
C      1  0.5461200000000  0.4899920000000  0.5552330000000 1.0
C      1  0.4571950000000  0.4932910000000  0.4463860000000 1.0
C      1  0.4614030000000  0.5067400000000  0.5596830000000 1.0
C      1  0.4445440000000  0.4583030000000  0.4951530000000 1.0
C      1  0.5571250000000  0.4568790000000  0.5061310000000 1.0
C      1  0.5587240000000  0.5386060000000  0.4956060000000 1.0
C      1  0.5092340000000  0.5541990000000  0.4570340000000 1.0
C      1  0.4904440000000  0.5569630000000  0.5400880000000 1.0
C      1  0.4936630000000  0.4454370000000  0.4577810000000 1.0
C      1  0.4563650000000  0.5075300000000  0.4468070000000 1.0
C      1  0.5577460000000  0.5403230000000  0.5099120000000 1.0
C      1  0.4945270000000  0.4437080000000  0.5419420000000 1.0
C      1  0.4608450000000  0.4925620000000  0.5586100000000 1.0
C      1  0.5423240000000  0.4929510000000  0.4417180000000 1.0
C      1  0.5465040000000  0.5194850000000  0.5534110000000 1.0
C      1  0.5565870000000  0.4563890000000  0.4921940000000 1.0
C      1  0.4446020000000  0.4572910000000  0.5092130000000 1.0
C      1  0.4409140000000  0.5402550000000  0.4955240000000 1.0
C      1  0.4951840000000  0.5548520000000  0.4570600000000 1.0
C      1  0.5047820000000  0.5576540000000  0.5384210000000 1.0
C      1  0.5077260000000  0.4447530000000  0.4573450000000 1.0
C      1  0.5835010000000  0.4774820000000  0.5358260000000 1.0
C      1  0.5373900000000  0.5898250000000  0.4670420000000 1.0
C      1  0.4775080000000  0.5409900000000  0.5786720000000 1.0
C      1  0.5832840000000  0.5224730000000  0.4631250000000 1.0
C      1  0.3976990000000  0.5375450000000  0.5240590000000 1.0
C      1  0.4185380000000  0.4747740000000  0.4644390000000 1.0
C      1  0.5354450000000  0.4106490000000  0.5216470000000 1.0
C      1  0.4622030000000  0.4161690000000  0.4717130000000 1.0
C      1  0.4596350000000  0.5863730000000  0.5236710000000 1.0
C      1  0.4769030000000  0.4662550000000  0.4168680000000 1.0
C      1  0.5283120000000  0.4700080000000  0.5879620000000 1.0
C      1  0.5261430000000  0.5368880000000  0.4149440000000 1.0
C      1  0.4159660000000  0.4734410000000  0.5385370000000 1.0
C      1  0.4663330000000  0.5843270000000  0.4754190000000 1.0
C      1  0.5226870000000  0.5284500000000  0.5921420000000 1.0
C      1  0.4132110000000  0.5294050000000  0.4649030000000 1.0
C      1  0.5841860000000  0.5252580000000  0.5440690000000 1.0
C      1  0.5835380000000  0.4730760000000  0.4606450000000 1.0
C      1  0.4635210000000  0.4160970000000  0.5253930000000 1.0
C      1  0.5343230000000  0.4163250000000  0.4767210000000 1.0
C      1  0.5174970000000  0.6017280000000  0.5386020000000 1.0
C      1  0.5229510000000  0.4655230000000  0.4114950000000 1.0
C      1  0.4767030000000  0.4629840000000  0.5847300000000 1.0
C      1  0.4728000000000  0.5368100000000  0.4167840000000 1.0
END
