TITL C-855863-9781-203 6.00079708011617 1000000 -2921.74978357631 0 0 420 (C1) n - 1
REM
REM in /scratch/bkarasulu/Larger-Clusters
REM
REM
REM
REM
REM
REM ./C.cell (28d0ae7d613b82ecca3ae8fabf5dfced)
REM
REM compiler GCC version 9.2.1 20190827 (Red Hat 9.2.1-1)
REM options -cpp -mtune=generic -march=x86-64 -g -O0 -fpre-include=/usr/include/finclude/math-vector-fortran.h
REM seed -16950356 145034381 135780607 -2127835053 -842476864 767388486 -1957642204 1865454840 -612773296 -302461385 1075597763 1700427830 819744301 -1761754180 1705941859 1737699996 -692212472 2017055069 531491948 733706690 -1876055524 -1439936414 -1319827204 272012732 -113708820 -973930362 919059953 2111919785 -796538025 -862610811 1502308753 1864003130 -1873089874
REM
CELL 1.54180  100.00000  100.00000  100.00000   90.00000   90.00000   90.00000
LATT -1
SFAC C  
C      1  0.5174700000000  0.5368470000000  0.4135120000000 1.0
C      1  0.5391840000000  0.4177890000000  0.5195040000000 1.0
C      1  0.4167070000000  0.5202480000000  0.5366060000000 1.0
C      1  0.5180220000000  0.4600420000000  0.5830620000000 1.0
C      1  0.4806410000000  0.5364180000000  0.5835440000000 1.0
C      1  0.4786800000000  0.4609170000000  0.4158340000000 1.0
C      1  0.5370990000000  0.5830640000000  0.4811050000000 1.0
C      1  0.4630940000000  0.4150240000000  0.4822930000000 1.0
C      1  0.4615540000000  0.5832030000000  0.5201330000000 1.0
C      1  0.4178300000000  0.4821440000000  0.4606300000000 1.0
C      1  0.5822540000000  0.5196750000000  0.4605110000000 1.0
C      1  0.5839050000000  0.4816820000000  0.5396760000000 1.0
C      1  0.4799860000000  0.5370460000000  0.4147510000000 1.0
C      1  0.4631720000000  0.4147650000000  0.5197670000000 1.0
C      1  0.5867460000000  0.5191170000000  0.5362130000000 1.0
C      1  0.4800700000000  0.4603130000000  0.5819810000000 1.0
C      1  0.5180980000000  0.5361320000000  0.5833480000000 1.0
C      1  0.5163450000000  0.4608680000000  0.4174360000000 1.0
C      1  0.4609920000000  0.5834490000000  0.4821200000000 1.0
C      1  0.5390950000000  0.4158940000000  0.4817490000000 1.0
C      1  0.5377450000000  0.5820070000000  0.5184780000000 1.0
C      1  0.5859800000000  0.4824170000000  0.4641230000000 1.0
C      1  0.4184530000000  0.5201390000000  0.4604300000000 1.0
C      1  0.4165350000000  0.4827720000000  0.5366690000000 1.0
C      1  0.5767320000000  0.4622150000000  0.4829490000000 1.0
C      1  0.4600620000000  0.4816530000000  0.5730830000000 1.0
C      1  0.4818890000000  0.5752790000000  0.4611990000000 1.0
C      1  0.5748660000000  0.5386380000000  0.5181040000000 1.0
C      1  0.4263420000000  0.4609610000000  0.5170990000000 1.0
C      1  0.4269460000000  0.5404490000000  0.4816720000000 1.0
C      1  0.4593700000000  0.5181530000000  0.4271140000000 1.0
C      1  0.5374950000000  0.4822070000000  0.4253900000000 1.0
C      1  0.5398420000000  0.5162460000000  0.5736120000000 1.0
C      1  0.4822710000000  0.4267590000000  0.5404000000000 1.0
C      1  0.5185040000000  0.5719590000000  0.5405070000000 1.0
C      1  0.5182020000000  0.4245720000000  0.4615860000000 1.0
C      1  0.4256950000000  0.4616960000000  0.4821850000000 1.0
C      1  0.5386700000000  0.4811960000000  0.5751240000000 1.0
C      1  0.5167040000000  0.5742150000000  0.4595350000000 1.0
C      1  0.4276570000000  0.5415130000000  0.5170920000000 1.0
C      1  0.5743410000000  0.4595270000000  0.5194180000000 1.0
C      1  0.5726220000000  0.5419680000000  0.4807910000000 1.0
C      1  0.5385180000000  0.5182710000000  0.4248480000000 1.0
C      1  0.4596700000000  0.4815480000000  0.4261470000000 1.0
C      1  0.4592910000000  0.5174430000000  0.5727400000000 1.0
C      1  0.5180800000000  0.4259140000000  0.5399620000000 1.0
C      1  0.4827300000000  0.5737670000000  0.5400230000000 1.0
C      1  0.4817530000000  0.4257760000000  0.4611170000000 1.0
C      1  0.5923590000000  0.4912290000000  0.5181970000000 1.0
C      1  0.4919480000000  0.5144920000000  0.5893490000000 1.0
C      1  0.5155940000000  0.5892550000000  0.4932150000000 1.0
C      1  0.5911550000000  0.5105490000000  0.4819760000000 1.0
C      1  0.4070430000000  0.4938700000000  0.4786850000000 1.0
C      1  0.4108020000000  0.5088060000000  0.5147550000000 1.0
C      1  0.4906120000000  0.4789790000000  0.4058540000000 1.0
C      1  0.5057070000000  0.5149250000000  0.4089540000000 1.0
C      1  0.5064140000000  0.4783430000000  0.5935230000000 1.0
C      1  0.5211830000000  0.4062040000000  0.5084210000000 1.0
C      1  0.4798340000000  0.5935900000000  0.5086400000000 1.0
C      1  0.4849790000000  0.4092590000000  0.4937280000000 1.0
C      1  0.4106120000000  0.4942710000000  0.5148050000000 1.0
C      1  0.5064760000000  0.5144380000000  0.5895210000000 1.0
C      1  0.4795640000000  0.5938050000000  0.4935850000000 1.0
C      1  0.4073000000000  0.5089050000000  0.4785960000000 1.0
C      1  0.5932770000000  0.4960420000000  0.4834950000000 1.0
C      1  0.5935390000000  0.5058450000000  0.5165590000000 1.0
C      1  0.5056450000000  0.4788430000000  0.4060030000000 1.0
C      1  0.4912200000000  0.5150120000000  0.4092730000000 1.0
C      1  0.4913760000000  0.4784040000000  0.5931680000000 1.0
C      1  0.4850560000000  0.4094300000000  0.5082220000000 1.0
C      1  0.5158460000000  0.5888960000000  0.5077460000000 1.0
C      1  0.5210530000000  0.4057510000000  0.4934190000000 1.0
C      1  0.5167670000000  0.5227840000000  0.4136540000000 1.0
C      1  0.5252730000000  0.4138720000000  0.5192250000000 1.0
C      1  0.4161680000000  0.5196850000000  0.5225140000000 1.0
C      1  0.5176260000000  0.4740350000000  0.5866010000000 1.0
C      1  0.4811230000000  0.5223270000000  0.5840700000000 1.0
C      1  0.4794780000000  0.4749740000000  0.4130250000000 1.0
C      1  0.5230380000000  0.5841320000000  0.4819680000000 1.0
C      1  0.4771550000000  0.4144410000000  0.4828370000000 1.0
C      1  0.4756490000000  0.5862590000000  0.5196370000000 1.0
C      1  0.4141440000000  0.4826670000000  0.4745790000000 1.0
C      1  0.5844710000000  0.5203810000000  0.4745420000000 1.0
C      1  0.5860780000000  0.4811210000000  0.5256930000000 1.0
C      1  0.4805230000000  0.5229510000000  0.4146200000000 1.0
C      1  0.4772430000000  0.4146660000000  0.5190760000000 1.0
C      1  0.5879620000000  0.5179150000000  0.5220740000000 1.0
C      1  0.4804750000000  0.4742980000000  0.5856210000000 1.0
C      1  0.5175110000000  0.5220680000000  0.5842040000000 1.0
C      1  0.5164580000000  0.4747620000000  0.4137220000000 1.0
C      1  0.4750280000000  0.5868000000000  0.4824720000000 1.0
C      1  0.5250930000000  0.4127730000000  0.4821940000000 1.0
C      1  0.5236710000000  0.5831940000000  0.5184080000000 1.0
C      1  0.5881030000000  0.4837040000000  0.4781410000000 1.0
C      1  0.4147490000000  0.5198140000000  0.4744000000000 1.0
C      1  0.4157860000000  0.4832970000000  0.5225900000000 1.0
C      1  0.5819440000000  0.4586300000000  0.4557250000000 1.0
C      1  0.4556080000000  0.4550240000000  0.5803190000000 1.0
C      1  0.4553810000000  0.5816580000000  0.4577560000000 1.0
C      1  0.5836950000000  0.5433060000000  0.5442880000000 1.0
C      1  0.4203170000000  0.4589050000000  0.5438540000000 1.0
C      1  0.4198420000000  0.5446230000000  0.4549590000000 1.0
C      1  0.4561430000000  0.5450160000000  0.4189710000000 1.0
C      1  0.5395840000000  0.4545520000000  0.4235340000000 1.0
C      1  0.5419250000000  0.5431390000000  0.5792190000000 1.0
C      1  0.4555440000000  0.4187220000000  0.5437240000000 1.0
C      1  0.5459730000000  0.5778260000000  0.5420040000000 1.0
C      1  0.5450780000000  0.4187890000000  0.4576650000000 1.0
C      1  0.4195540000000  0.4577180000000  0.4556250000000 1.0
C      1  0.5424220000000  0.4546480000000  0.5818740000000 1.0
C      1  0.5434370000000  0.5797020000000  0.4570280000000 1.0
C      1  0.4207210000000  0.5441690000000  0.5440420000000 1.0
C      1  0.5787710000000  0.4582840000000  0.5472030000000 1.0
C      1  0.5783040000000  0.5431580000000  0.4529040000000 1.0
C      1  0.5415610000000  0.5449040000000  0.4164150000000 1.0
C      1  0.4541590000000  0.4549310000000  0.4183810000000 1.0
C      1  0.4564520000000  0.5441260000000  0.5808700000000 1.0
C      1  0.5449310000000  0.4192810000000  0.5438830000000 1.0
C      1  0.4563930000000  0.5816440000000  0.5446150000000 1.0
C      1  0.4543730000000  0.4187750000000  0.4584510000000 1.0
C      1  0.4490150000000  0.5500610000000  0.5234280000000 1.0
C      1  0.5486650000000  0.5242650000000  0.4455530000000 1.0
C      1  0.5239140000000  0.4471970000000  0.5493990000000 1.0
C      1  0.4469580000000  0.4495550000000  0.4794540000000 1.0
C      1  0.5510680000000  0.5500610000000  0.4744000000000 1.0
C      1  0.5527660000000  0.4507230000000  0.5246050000000 1.0
C      1  0.5500500000000  0.4778740000000  0.5540300000000 1.0
C      1  0.4501940000000  0.5237170000000  0.5513930000000 1.0
C      1  0.4513890000000  0.4756400000000  0.4478610000000 1.0
C      1  0.5197890000000  0.5530620000000  0.4479560000000 1.0
C      1  0.4762050000000  0.4470040000000  0.4507160000000 1.0
C      1  0.4773050000000  0.5522950000000  0.5500400000000 1.0
C      1  0.5532860000000  0.5477340000000  0.5241740000000 1.0
C      1  0.4524800000000  0.5254550000000  0.4488640000000 1.0
C      1  0.4754890000000  0.4483110000000  0.5479570000000 1.0
C      1  0.5554740000000  0.4511830000000  0.4799900000000 1.0
C      1  0.4483380000000  0.5498390000000  0.4759820000000 1.0
C      1  0.4473130000000  0.4494080000000  0.5209250000000 1.0
C      1  0.4499710000000  0.4767290000000  0.5515210000000 1.0
C      1  0.5518180000000  0.5201120000000  0.5525600000000 1.0
C      1  0.5506020000000  0.4817760000000  0.4459020000000 1.0
C      1  0.4786240000000  0.5541440000000  0.4492190000000 1.0
C      1  0.5206040000000  0.4457540000000  0.4508450000000 1.0
C      1  0.5241340000000  0.5505450000000  0.5501190000000 1.0
C      1  0.4932560000000  0.4866890000000  0.5363900000000 1.0
C      1  0.4874780000000  0.5396860000000  0.4949190000000 1.0
C      1  0.5388100000000  0.4932170000000  0.4880360000000 1.0
C      1  0.4931660000000  0.5125780000000  0.4632410000000 1.0
C      1  0.5076920000000  0.4883070000000  0.4620410000000 1.0
C      1  0.5057740000000  0.5123330000000  0.5384010000000 1.0
C      1  0.4880690000000  0.4628540000000  0.5073580000000 1.0
C      1  0.5139560000000  0.5358240000000  0.5065070000000 1.0
C      1  0.5125320000000  0.4625180000000  0.4928290000000 1.0
C      1  0.5381150000000  0.5077060000000  0.5121000000000 1.0
C      1  0.4618900000000  0.4950620000000  0.5126990000000 1.0
C      1  0.4646470000000  0.5071290000000  0.4866040000000 1.0
C      1  0.5056380000000  0.4865180000000  0.5374050000000 1.0
C      1  0.5132190000000  0.5370200000000  0.4941360000000 1.0
C      1  0.4635030000000  0.4947750000000  0.4867410000000 1.0
C      1  0.5052760000000  0.5146630000000  0.4636450000000 1.0
C      1  0.4954810000000  0.4861070000000  0.4625600000000 1.0
C      1  0.4934470000000  0.5126610000000  0.5375910000000 1.0
C      1  0.5144350000000  0.4630660000000  0.5050920000000 1.0
C      1  0.4880260000000  0.5385190000000  0.5071880000000 1.0
C      1  0.4860400000000  0.4631630000000  0.4952250000000 1.0
C      1  0.4629980000000  0.5073630000000  0.5124640000000 1.0
C      1  0.5379540000000  0.4956300000000  0.5146430000000 1.0
C      1  0.5381640000000  0.5054360000000  0.4858280000000 1.0
C      1  0.5450650000000  0.5814900000000  0.5303120000000 1.0
C      1  0.5866000000000  0.5314630000000  0.5422490000000 1.0
C      1  0.5302100000000  0.5431120000000  0.5829240000000 1.0
C      1  0.5456470000000  0.4156830000000  0.4696320000000 1.0
C      1  0.4543070000000  0.5826090000000  0.4701030000000 1.0
C      1  0.4565240000000  0.4148310000000  0.5320640000000 1.0
C      1  0.5857660000000  0.4702050000000  0.4577590000000 1.0
C      1  0.4195030000000  0.5322000000000  0.4539130000000 1.0
C      1  0.4167420000000  0.4706620000000  0.5436450000000 1.0
C      1  0.5280640000000  0.4538660000000  0.4192390000000 1.0
C      1  0.4677720000000  0.5438310000000  0.4150240000000 1.0
C      1  0.4680160000000  0.4538480000000  0.5807830000000 1.0
C      1  0.4551020000000  0.5822340000000  0.5322220000000 1.0
C      1  0.4170960000000  0.5324160000000  0.5434560000000 1.0
C      1  0.4684550000000  0.5431000000000  0.5835110000000 1.0
C      1  0.4564240000000  0.4152790000000  0.4700980000000 1.0
C      1  0.5438460000000  0.5830250000000  0.4688580000000 1.0
C      1  0.5458980000000  0.4187020000000  0.5314870000000 1.0
C      1  0.4184660000000  0.4700160000000  0.4541420000000 1.0
C      1  0.5814770000000  0.5312390000000  0.4528870000000 1.0
C      1  0.5824980000000  0.4700090000000  0.5471070000000 1.0
C      1  0.4663840000000  0.4549220000000  0.4162570000000 1.0
C      1  0.5297660000000  0.5434310000000  0.4131410000000 1.0
C      1  0.5300460000000  0.4534090000000  0.5824630000000 1.0
C      1  0.5951540000000  0.4852890000000  0.5054330000000 1.0
C      1  0.4854350000000  0.5018350000000  0.5922680000000 1.0
C      1  0.5028260000000  0.5927180000000  0.4871900000000 1.0
C      1  0.5939080000000  0.5166540000000  0.4946680000000 1.0
C      1  0.4012850000000  0.4945110000000  0.4919220000000 1.0
C      1  0.4079570000000  0.5151500000000  0.5020000000000 1.0
C      1  0.4911570000000  0.4921980000000  0.4001940000000 1.0
C      1  0.5120050000000  0.5021360000000  0.4062710000000 1.0
C      1  0.5059420000000  0.4916680000000  0.5990850000000 1.0
C      1  0.5079610000000  0.4003710000000  0.5081720000000 1.0
C      1  0.4932610000000  0.5989020000000  0.5081480000000 1.0
C      1  0.4976620000000  0.4062910000000  0.4873160000000 1.0
C      1  0.4074960000000  0.4879240000000  0.5021170000000 1.0
C      1  0.5126900000000  0.5017320000000  0.5927910000000 1.0
C      1  0.4929690000000  0.5991920000000  0.4939920000000 1.0
C      1  0.4015440000000  0.5086720000000  0.4918510000000 1.0
C      1  0.5989470000000  0.4950260000000  0.4964380000000 1.0
C      1  0.5986360000000  0.5071480000000  0.5034380000000 1.0
C      1  0.5053280000000  0.4920080000000  0.4000990000000 1.0
C      1  0.4847000000000  0.5023080000000  0.4067000000000 1.0
C      1  0.4917790000000  0.4917040000000  0.5988050000000 1.0
C      1  0.4978120000000  0.4067660000000  0.5146230000000 1.0
C      1  0.5033370000000  0.5921360000000  0.5144000000000 1.0
C      1  0.5078110000000  0.4000640000000  0.4940070000000 1.0
C      1  0.4514540000000  0.5262530000000  0.5652820000000 1.0
C      1  0.5240950000000  0.5667220000000  0.4505850000000 1.0
C      1  0.5664010000000  0.4516050000000  0.5277540000000 1.0
C      1  0.4516350000000  0.4733700000000  0.4339810000000 1.0
C      1  0.5466830000000  0.5270700000000  0.4318180000000 1.0
C      1  0.5475430000000  0.4737260000000  0.5675910000000 1.0
C      1  0.5258900000000  0.4332860000000  0.5486660000000 1.0
C      1  0.4748760000000  0.5663080000000  0.5485710000000 1.0
C      1  0.4730920000000  0.4331930000000  0.4532300000000 1.0
C      1  0.5648350000000  0.5496870000000  0.4719430000000 1.0
C      1  0.4333020000000  0.4526970000000  0.4750810000000 1.0
C      1  0.4352020000000  0.5495980000000  0.5256620000000 1.0
C      1  0.5488450000000  0.5239220000000  0.5663740000000 1.0
C      1  0.4745370000000  0.5679470000000  0.4521520000000 1.0
C      1  0.4336240000000  0.4521330000000  0.5249410000000 1.0
C      1  0.5462370000000  0.4754900000000  0.4336420000000 1.0
C      1  0.4522710000000  0.5273930000000  0.4349830000000 1.0
C      1  0.4514820000000  0.4739470000000  0.5654260000000 1.0
C      1  0.4733150000000  0.4344860000000  0.5478720000000 1.0
C      1  0.5270180000000  0.5643020000000  0.5486000000000 1.0
C      1  0.5256670000000  0.4327210000000  0.4533500000000 1.0
C      1  0.4344360000000  0.5490320000000  0.4738020000000 1.0
C      1  0.5686960000000  0.4541270000000  0.4754530000000 1.0
C      1  0.5672500000000  0.5464130000000  0.5266280000000 1.0
C      1  0.5395300000000  0.4281640000000  0.5529170000000 1.0
C      1  0.4302640000000  0.5530540000000  0.5395150000000 1.0
C      1  0.5498420000000  0.5406460000000  0.4266850000000 1.0
C      1  0.5381340000000  0.5708290000000  0.4479530000000 1.0
C      1  0.4593840000000  0.4289090000000  0.4505270000000 1.0
C      1  0.4614160000000  0.5715510000000  0.5525080000000 1.0
C      1  0.4293630000000  0.4497330000000  0.4610570000000 1.0
C      1  0.5693420000000  0.5524460000000  0.4576130000000 1.0
C      1  0.5702350000000  0.4488580000000  0.5419270000000 1.0
C      1  0.5505010000000  0.4597320000000  0.5719300000000 1.0
C      1  0.4484070000000  0.5399540000000  0.5704320000000 1.0
C      1  0.4470720000000  0.4597670000000  0.4292140000000 1.0
C      1  0.4598310000000  0.4291380000000  0.5518040000000 1.0
C      1  0.5725570000000  0.5503710000000  0.5400900000000 1.0
C      1  0.4483040000000  0.5408030000000  0.4296080000000 1.0
C      1  0.4606130000000  0.5720680000000  0.4494250000000 1.0
C      1  0.5400290000000  0.4295370000000  0.4506730000000 1.0
C      1  0.5412990000000  0.5686730000000  0.5511580000000 1.0
C      1  0.5717240000000  0.4514380000000  0.4615250000000 1.0
C      1  0.4293180000000  0.5531530000000  0.4602370000000 1.0
C      1  0.4293560000000  0.4497450000000  0.5389890000000 1.0
C      1  0.4476210000000  0.4602380000000  0.5703760000000 1.0
C      1  0.5512370000000  0.5379810000000  0.5705400000000 1.0
C      1  0.5479110000000  0.4609100000000  0.4323440000000 1.0
C      1  0.4586520000000  0.5192480000000  0.5424860000000 1.0
C      1  0.5169260000000  0.5450690000000  0.4580660000000 1.0
C      1  0.5443230000000  0.4598440000000  0.5209050000000 1.0
C      1  0.4595430000000  0.4798300000000  0.4569620000000 1.0
C      1  0.5404020000000  0.5208510000000  0.4549060000000 1.0
C      1  0.5413520000000  0.4813520000000  0.5449690000000 1.0
C      1  0.5203350000000  0.4564300000000  0.5410640000000 1.0
C      1  0.4816790000000  0.5432970000000  0.5416310000000 1.0
C      1  0.4797860000000  0.4555100000000  0.4599680000000 1.0
C      1  0.5422580000000  0.5416240000000  0.4787770000000 1.0
C      1  0.4554800000000  0.4591310000000  0.4823760000000 1.0
C      1  0.4578720000000  0.5418220000000  0.5186620000000 1.0
C      1  0.5416740000000  0.5166030000000  0.5448390000000 1.0
C      1  0.4821210000000  0.5465430000000  0.4593870000000 1.0
C      1  0.4550280000000  0.4594560000000  0.5173080000000 1.0
C      1  0.5430310000000  0.4862590000000  0.4553800000000 1.0
C      1  0.4603180000000  0.5196000000000  0.4573610000000 1.0
C      1  0.4580210000000  0.4810980000000  0.5423040000000 1.0
C      1  0.4811410000000  0.4570990000000  0.5402530000000 1.0
C      1  0.5200020000000  0.5413720000000  0.5419130000000 1.0
C      1  0.5156390000000  0.4549550000000  0.4583690000000 1.0
C      1  0.4575770000000  0.5419900000000  0.4805410000000 1.0
C      1  0.5463540000000  0.4587110000000  0.4850490000000 1.0
C      1  0.5439730000000  0.5404940000000  0.5188900000000 1.0
C      1  0.4689210000000  0.5143180000000  0.5371730000000 1.0
C      1  0.5140290000000  0.5405970000000  0.4694210000000 1.0
C      1  0.5393730000000  0.4707830000000  0.5173370000000 1.0
C      1  0.4703100000000  0.4839470000000  0.4620780000000 1.0
C      1  0.5298980000000  0.5177190000000  0.4609880000000 1.0
C      1  0.5304230000000  0.4851240000000  0.5399360000000 1.0
C      1  0.5164960000000  0.4618510000000  0.5303550000000 1.0
C      1  0.4868690000000  0.5378890000000  0.5315100000000 1.0
C      1  0.4832200000000  0.4611000000000  0.4705890000000 1.0
C      1  0.5378990000000  0.5306510000000  0.4833020000000 1.0
C      1  0.4605720000000  0.4701330000000  0.4856490000000 1.0
C      1  0.4635550000000  0.5317690000000  0.5137990000000 1.0
C      1  0.5302030000000  0.5133620000000  0.5410680000000 1.0
C      1  0.4858690000000  0.5425800000000  0.4706400000000 1.0
C      1  0.4589430000000  0.4708010000000  0.5138720000000 1.0
C      1  0.5323170000000  0.4905610000000  0.4606440000000 1.0
C      1  0.4692930000000  0.5126230000000  0.4628580000000 1.0
C      1  0.4684950000000  0.4857620000000  0.5369520000000 1.0
C      1  0.4880640000000  0.4628900000000  0.5313970000000 1.0
C      1  0.5155120000000  0.5361710000000  0.5313160000000 1.0
C      1  0.5105660000000  0.4610030000000  0.4682670000000 1.0
C      1  0.4632710000000  0.5317490000000  0.4852160000000 1.0
C      1  0.5402350000000  0.4687000000000  0.4899710000000 1.0
C      1  0.5378400000000  0.5317710000000  0.5119940000000 1.0
C      1  0.5143100000000  0.5793960000000  0.5299910000000 1.0
C      1  0.5829130000000  0.5290100000000  0.5126600000000 1.0
C      1  0.5288870000000  0.5124180000000  0.5805110000000 1.0
C      1  0.5142300000000  0.4167990000000  0.4720120000000 1.0
C      1  0.4857110000000  0.5826780000000  0.4720250000000 1.0
C      1  0.4867330000000  0.4192370000000  0.5302130000000 1.0
C      1  0.5842090000000  0.4724240000000  0.4878120000000 1.0
C      1  0.4188890000000  0.5300340000000  0.4853360000000 1.0
C      1  0.4195430000000  0.4718550000000  0.5130740000000 1.0
C      1  0.5269190000000  0.4856580000000  0.4175140000000 1.0
C      1  0.4693500000000  0.5135490000000  0.4193620000000 1.0
C      1  0.4703990000000  0.4852820000000  0.5813130000000 1.0
C      1  0.4865990000000  0.5817140000000  0.5296040000000 1.0
C      1  0.4203710000000  0.5309770000000  0.5129400000000 1.0
C      1  0.4697290000000  0.5129640000000  0.5799790000000 1.0
C      1  0.4864420000000  0.4184810000000  0.4714690000000 1.0
C      1  0.5131340000000  0.5808200000000  0.4706980000000 1.0
C      1  0.5143710000000  0.4178720000000  0.5295040000000 1.0
C      1  0.4179140000000  0.4724640000000  0.4855750000000 1.0
C      1  0.5804370000000  0.5316850000000  0.4845510000000 1.0
C      1  0.5821110000000  0.4698330000000  0.5157310000000 1.0
C      1  0.4696750000000  0.4857800000000  0.4177670000000 1.0
C      1  0.5280410000000  0.5134460000000  0.4179190000000 1.0
C      1  0.5279690000000  0.4848950000000  0.5827550000000 1.0
C      1  0.5612080000000  0.4474260000000  0.4526420000000 1.0
C      1  0.4443680000000  0.4497560000000  0.5612350000000 1.0
C      1  0.4502060000000  0.5629930000000  0.4453720000000 1.0
C      1  0.5633610000000  0.5533530000000  0.5507000000000 1.0
C      1  0.4380870000000  0.4452880000000  0.5495130000000 1.0
C      1  0.4387590000000  0.5564420000000  0.4500160000000 1.0
C      1  0.4454420000000  0.5513800000000  0.4389260000000 1.0
C      1  0.5528330000000  0.4518020000000  0.4423160000000 1.0
C      1  0.5561730000000  0.5482300000000  0.5617040000000 1.0
C      1  0.4493380000000  0.4385720000000  0.5546240000000 1.0
C      1  0.5517810000000  0.5598050000000  0.5551670000000 1.0
C      1  0.5500160000000  0.4397620000000  0.4488240000000 1.0
C      1  0.4381580000000  0.4453570000000  0.4505900000000 1.0
C      1  0.5542040000000  0.4489830000000  0.5632660000000 1.0
C      1  0.5484880000000  0.5622510000000  0.4429640000000 1.0
C      1  0.4397150000000  0.5560790000000  0.5498890000000 1.0
C      1  0.5606710000000  0.4446080000000  0.5516460000000 1.0
C      1  0.5602950000000  0.5559780000000  0.4470670000000 1.0
C      1  0.5533090000000  0.5511260000000  0.4359080000000 1.0
C      1  0.4444450000000  0.4493100000000  0.4387510000000 1.0
C      1  0.4456280000000  0.5507490000000  0.5614290000000 1.0
C      1  0.5496980000000  0.4375300000000  0.5566040000000 1.0
C      1  0.4508690000000  0.5623100000000  0.5554840000000 1.0
C      1  0.4495500000000  0.4384730000000  0.4461390000000 1.0
C      1  0.5851970000000  0.5069300000000  0.5434170000000 1.0
C      1  0.5054570000000  0.5426500000000  0.5830740000000 1.0
C      1  0.5439440000000  0.5815820000000  0.5057230000000 1.0
C      1  0.5834310000000  0.4944510000000  0.4570670000000 1.0
C      1  0.4201770000000  0.5071570000000  0.4545130000000 1.0
C      1  0.4169240000000  0.4954360000000  0.5431180000000 1.0
C      1  0.5034180000000  0.4548200000000  0.4187070000000 1.0
C      1  0.4926950000000  0.5434510000000  0.4146310000000 1.0
C      1  0.4929880000000  0.4542340000000  0.5804940000000 1.0
C      1  0.5450430000000  0.4187940000000  0.4944190000000 1.0
C      1  0.4550900000000  0.5816790000000  0.4950980000000 1.0
C      1  0.4566910000000  0.4150600000000  0.5071030000000 1.0
C      1  0.4168520000000  0.5075790000000  0.5430850000000 1.0
C      1  0.4933220000000  0.5428570000000  0.5831650000000 1.0
C      1  0.4554330000000  0.5818750000000  0.5072220000000 1.0
C      1  0.4199640000000  0.4950180000000  0.4546220000000 1.0
C      1  0.5816010000000  0.5063450000000  0.4554180000000 1.0
C      1  0.5836430000000  0.4949910000000  0.5449750000000 1.0
C      1  0.4913200000000  0.4545920000000  0.4179140000000 1.0
C      1  0.5048290000000  0.5433670000000  0.4140420000000 1.0
C      1  0.5051130000000  0.4541750000000  0.5808580000000 1.0
C      1  0.4566130000000  0.4153290000000  0.4949620000000 1.0
C      1  0.5437730000000  0.5821410000000  0.4935940000000 1.0
C      1  0.5449580000000  0.4195820000000  0.5065130000000 1.0
C      1  0.4937400000000  0.5366120000000  0.5197240000000 1.0
C      1  0.5373500000000  0.5188310000000  0.4904910000000 1.0
C      1  0.5185970000000  0.4918060000000  0.5379380000000 1.0
C      1  0.4904700000000  0.4631170000000  0.4819790000000 1.0
C      1  0.5076550000000  0.5385330000000  0.4814420000000 1.0
C      1  0.5096900000000  0.4634940000000  0.5184950000000 1.0
C      1  0.5378940000000  0.4823300000000  0.5101570000000 1.0
C      1  0.4646120000000  0.5199960000000  0.5069180000000 1.0
C      1  0.4626010000000  0.4819960000000  0.4922340000000 1.0
C      1  0.5185460000000  0.5103960000000  0.4631160000000 1.0
C      1  0.4821120000000  0.4909190000000  0.4632230000000 1.0
C      1  0.4806650000000  0.5073330000000  0.5362080000000 1.0
C      1  0.5085710000000  0.5354480000000  0.5194570000000 1.0
C      1  0.4650250000000  0.5199930000000  0.4920700000000 1.0
C      1  0.4804870000000  0.4924100000000  0.5358160000000 1.0
C      1  0.5052400000000  0.4625350000000  0.4807520000000 1.0
C      1  0.4928330000000  0.5398840000000  0.4820260000000 1.0
C      1  0.4949760000000  0.4632870000000  0.5194440000000 1.0
C      1  0.4616340000000  0.4823040000000  0.5071090000000 1.0
C      1  0.5376240000000  0.5197970000000  0.5051170000000 1.0
C      1  0.5387410000000  0.4811650000000  0.4953660000000 1.0
C      1  0.4811230000000  0.5056020000000  0.4632500000000 1.0
C      1  0.5197640000000  0.4956220000000  0.4622700000000 1.0
C      1  0.5185320000000  0.5067120000000  0.5386050000000 1.0
C      1  0.4738750000000  0.4993870000000  0.5846720000000 1.0
C      1  0.4998990000000  0.5856450000000  0.4754650000000 1.0
C      1  0.5873630000000  0.4742200000000  0.5023250000000 1.0
C      1  0.5236450000000  0.4997280000000  0.4137640000000 1.0
C      1  0.5002670000000  0.4144990000000  0.5260820000000 1.0
C      1  0.5008460000000  0.5845840000000  0.5259830000000 1.0
C      1  0.5000600000000  0.4136830000000  0.4755870000000 1.0
C      1  0.5857890000000  0.5274270000000  0.4979750000000 1.0
C      1  0.4147510000000  0.4761960000000  0.4996120000000 1.0
C      1  0.4155820000000  0.5266640000000  0.4994650000000 1.0
C      1  0.4732430000000  0.4999570000000  0.4145430000000 1.0
C      1  0.5244150000000  0.4990500000000  0.5855800000000 1.0
END
