TITL C-855863-9781-410 27.0043043833411 1000000 -2667.75093448006 0 0 380 (Th) n - 1
REM
REM in /scratch/bkarasulu/Larger-Clusters
REM
REM
REM
REM
REM
REM ./C.cell (28d0ae7d613b82ecca3ae8fabf5dfced)
REM
REM compiler GCC version 9.2.1 20190827 (Red Hat 9.2.1-1)
REM options -cpp -mtune=generic -march=x86-64 -g -O0 -fpre-include=/usr/include/finclude/math-vector-fortran.h
REM seed 709670580 -1929794258 958517698 -311186571 411393822 1818446507 117753221 -523852280 -1456054987 -5237616 1868218173 1072730788 -1904199905 -935345192 395656770 1262666349 604335799 -1681839311 1712202526 -299268070 -1073326083 -104975677 623908105 1021150725 -1897617180 1565578130 -1183857084 610129396 -540781207 2034112680 -6749565 -314860807 -997441657
REM
CELL 1.54180  100.00000  100.00000  100.00000   90.00000   90.00000   90.00000
LATT -1
SFAC C  
C      1  0.4931560000000  0.5710840000000  0.5511170000000 1.0
C      1  0.5710280000000  0.5507990000000  0.4935300000000 1.0
C      1  0.5507430000000  0.4932120000000  0.5714020000000 1.0
C      1  0.5062120000000  0.5710810000000  0.4489920000000 1.0
C      1  0.5062060000000  0.4283950000000  0.5511210000000 1.0
C      1  0.4931550000000  0.4283930000000  0.4489950000000 1.0
C      1  0.4283390000000  0.5508030000000  0.5065800000000 1.0
C      1  0.4283370000000  0.4486770000000  0.4935290000000 1.0
C      1  0.5710250000000  0.4486740000000  0.5065860000000 1.0
C      1  0.4486210000000  0.4932120000000  0.4287110000000 1.0
C      1  0.4486180000000  0.5062680000000  0.5713990000000 1.0
C      1  0.5507470000000  0.5062620000000  0.4287130000000 1.0
C      1  0.4931520000000  0.4283960000000  0.5511200000000 1.0
C      1  0.5710250000000  0.4486740000000  0.4935330000000 1.0
C      1  0.5507430000000  0.5062660000000  0.5714020000000 1.0
C      1  0.5062090000000  0.4283930000000  0.4489950000000 1.0
C      1  0.5062090000000  0.5710840000000  0.5511180000000 1.0
C      1  0.4931590000000  0.5710820000000  0.4489920000000 1.0
C      1  0.4283370000000  0.4486780000000  0.5065820000000 1.0
C      1  0.4283400000000  0.5508030000000  0.4935260000000 1.0
C      1  0.5710280000000  0.5508000000000  0.5065840000000 1.0
C      1  0.4486220000000  0.5062650000000  0.4287110000000 1.0
C      1  0.4486170000000  0.4932150000000  0.5713990000000 1.0
C      1  0.5507470000000  0.4932090000000  0.4287140000000 1.0
C      1  0.5276690000000  0.4549980000000  0.4317200000000 1.0
C      1  0.4549420000000  0.4314020000000  0.5280430000000 1.0
C      1  0.4313460000000  0.5277250000000  0.4553160000000 1.0
C      1  0.4716930000000  0.4550030000000  0.5683950000000 1.0
C      1  0.4716990000000  0.5444760000000  0.4317160000000 1.0
C      1  0.5276680000000  0.5444780000000  0.5683940000000 1.0
C      1  0.5444200000000  0.4313990000000  0.4720730000000 1.0
C      1  0.5444210000000  0.5680760000000  0.5280420000000 1.0
C      1  0.4549470000000  0.5680770000000  0.4720670000000 1.0
C      1  0.5680200000000  0.5277240000000  0.5447960000000 1.0
C      1  0.5680210000000  0.4717500000000  0.4553210000000 1.0
C      1  0.4313420000000  0.4717550000000  0.5447930000000 1.0
C      1  0.5276710000000  0.5444750000000  0.4317180000000 1.0
C      1  0.4549450000000  0.5680780000000  0.5280400000000 1.0
C      1  0.4313450000000  0.4717530000000  0.4553170000000 1.0
C      1  0.4716950000000  0.5444790000000  0.5683930000000 1.0
C      1  0.4716970000000  0.4550000000000  0.4317180000000 1.0
C      1  0.5276650000000  0.4550010000000  0.5683960000000 1.0
C      1  0.5444230000000  0.5680750000000  0.4720700000000 1.0
C      1  0.5444180000000  0.4314000000000  0.5280450000000 1.0
C      1  0.4549430000000  0.4314010000000  0.4720700000000 1.0
C      1  0.5680190000000  0.4717520000000  0.5447970000000 1.0
C      1  0.5680220000000  0.5277220000000  0.4553190000000 1.0
C      1  0.4313440000000  0.5277270000000  0.5447920000000 1.0
C      1  0.4391740000000  0.4846440000000  0.4357110000000 1.0
C      1  0.4845870000000  0.4353940000000  0.4395480000000 1.0
C      1  0.4353380000000  0.4392300000000  0.4849610000000 1.0
C      1  0.5601900000000  0.4846440000000  0.5644020000000 1.0
C      1  0.5601940000000  0.5148310000000  0.4357140000000 1.0
C      1  0.4391710000000  0.5148370000000  0.5643980000000 1.0
C      1  0.5147740000000  0.4353960000000  0.5605680000000 1.0
C      1  0.5147810000000  0.5640800000000  0.4395460000000 1.0
C      1  0.4845870000000  0.5640840000000  0.5605640000000 1.0
C      1  0.5640240000000  0.4392280000000  0.5151540000000 1.0
C      1  0.5640280000000  0.5602460000000  0.4849620000000 1.0
C      1  0.4353400000000  0.5602500000000  0.5151480000000 1.0
C      1  0.4391750000000  0.5148340000000  0.4357110000000 1.0
C      1  0.4845900000000  0.5640810000000  0.4395450000000 1.0
C      1  0.4353410000000  0.5602490000000  0.4849580000000 1.0
C      1  0.5601900000000  0.5148340000000  0.5644010000000 1.0
C      1  0.5601930000000  0.4846410000000  0.4357150000000 1.0
C      1  0.4391710000000  0.4846460000000  0.5643980000000 1.0
C      1  0.5147770000000  0.5640830000000  0.5605650000000 1.0
C      1  0.5147770000000  0.4353930000000  0.4395490000000 1.0
C      1  0.4845840000000  0.4353970000000  0.5605670000000 1.0
C      1  0.5640270000000  0.5602470000000  0.5151520000000 1.0
C      1  0.5640250000000  0.4392270000000  0.4849640000000 1.0
C      1  0.4353370000000  0.4392310000000  0.5151510000000 1.0
C      1  0.5368080000000  0.4425380000000  0.5492210000000 1.0
C      1  0.4424820000000  0.5489030000000  0.5371820000000 1.0
C      1  0.5488470000000  0.5368640000000  0.4428560000000 1.0
C      1  0.4625540000000  0.4425380000000  0.4508940000000 1.0
C      1  0.4625540000000  0.5569410000000  0.5492160000000 1.0
C      1  0.5368130000000  0.5569370000000  0.4508940000000 1.0
C      1  0.5568850000000  0.5488990000000  0.4629290000000 1.0
C      1  0.5568810000000  0.4505760000000  0.5371870000000 1.0
C      1  0.4424810000000  0.4505770000000  0.4629280000000 1.0
C      1  0.4505190000000  0.5368690000000  0.5572550000000 1.0
C      1  0.4505210000000  0.4626100000000  0.4428550000000 1.0
C      1  0.5488420000000  0.4626110000000  0.5572590000000 1.0
C      1  0.5368100000000  0.5569400000000  0.5492180000000 1.0
C      1  0.4424790000000  0.4505790000000  0.5371840000000 1.0
C      1  0.5488450000000  0.4626080000000  0.4428580000000 1.0
C      1  0.4625570000000  0.5569390000000  0.4508920000000 1.0
C      1  0.4625520000000  0.4425400000000  0.5492190000000 1.0
C      1  0.5368100000000  0.4425360000000  0.4508960000000 1.0
C      1  0.5568830000000  0.4505740000000  0.4629310000000 1.0
C      1  0.5568830000000  0.5489000000000  0.5371850000000 1.0
C      1  0.4424840000000  0.5489010000000  0.4629260000000 1.0
C      1  0.4505180000000  0.4626130000000  0.5572570000000 1.0
C      1  0.4505230000000  0.5368670000000  0.4428530000000 1.0
C      1  0.5488440000000  0.5368670000000  0.5572580000000 1.0
C      1  0.4376530000000  0.4280270000000  0.4928580000000 1.0
C      1  0.4279710000000  0.4925400000000  0.4380270000000 1.0
C      1  0.4924840000000  0.4377100000000  0.4283450000000 1.0
C      1  0.5617080000000  0.4280250000000  0.5072580000000 1.0
C      1  0.5617120000000  0.5714490000000  0.4928580000000 1.0
C      1  0.4376560000000  0.5714530000000  0.5072520000000 1.0
C      1  0.5713930000000  0.4925400000000  0.5620860000000 1.0
C      1  0.5713970000000  0.5069340000000  0.4380310000000 1.0
C      1  0.4279680000000  0.5069400000000  0.5620820000000 1.0
C      1  0.5068770000000  0.4377120000000  0.5717700000000 1.0
C      1  0.5068840000000  0.5617640000000  0.4283430000000 1.0
C      1  0.4924830000000  0.5617680000000  0.5717670000000 1.0
C      1  0.4376570000000  0.5714520000000  0.4928540000000 1.0
C      1  0.4279720000000  0.5069370000000  0.4380270000000 1.0
C      1  0.4924870000000  0.5617650000000  0.4283420000000 1.0
C      1  0.5617110000000  0.5714500000000  0.5072550000000 1.0
C      1  0.5617080000000  0.4280240000000  0.4928610000000 1.0
C      1  0.4376530000000  0.4280280000000  0.5072550000000 1.0
C      1  0.5713930000000  0.5069370000000  0.5620860000000 1.0
C      1  0.5713960000000  0.4925370000000  0.4380310000000 1.0
C      1  0.4279680000000  0.4925430000000  0.5620820000000 1.0
C      1  0.5068800000000  0.5617680000000  0.5717680000000 1.0
C      1  0.5068810000000  0.4377090000000  0.4283450000000 1.0
C      1  0.4924800000000  0.4377130000000  0.5717700000000 1.0
C      1  0.5607660000000  0.4686320000000  0.4787160000000 1.0
C      1  0.4685750000000  0.4783980000000  0.5611400000000 1.0
C      1  0.4783420000000  0.5608220000000  0.4689490000000 1.0
C      1  0.4385970000000  0.4686360000000  0.5213980000000 1.0
C      1  0.4386000000000  0.5308450000000  0.4787120000000 1.0
C      1  0.5607660000000  0.5308430000000  0.5214000000000 1.0
C      1  0.5307880000000  0.4783940000000  0.4389740000000 1.0
C      1  0.5307860000000  0.5210820000000  0.5611410000000 1.0
C      1  0.4685800000000  0.5210800000000  0.4389710000000 1.0
C      1  0.5210250000000  0.5608230000000  0.5311600000000 1.0
C      1  0.5210240000000  0.4386540000000  0.4689530000000 1.0
C      1  0.4783380000000  0.4386560000000  0.5311620000000 1.0
C      1  0.5607670000000  0.5308410000000  0.4787150000000 1.0
C      1  0.4685760000000  0.5210830000000  0.5611390000000 1.0
C      1  0.4783390000000  0.4386550000000  0.4689520000000 1.0
C      1  0.4385990000000  0.5308450000000  0.5213960000000 1.0
C      1  0.4385980000000  0.4686350000000  0.4787130000000 1.0
C      1  0.5607650000000  0.4686330000000  0.5214010000000 1.0
C      1  0.5307890000000  0.5210790000000  0.4389730000000 1.0
C      1  0.5307850000000  0.4783970000000  0.5611410000000 1.0
C      1  0.4685790000000  0.4783960000000  0.4389720000000 1.0
C      1  0.5210220000000  0.4386550000000  0.5311630000000 1.0
C      1  0.5210270000000  0.5608210000000  0.4689510000000 1.0
C      1  0.4783400000000  0.5608240000000  0.5311590000000 1.0
C      1  0.5788600000000  0.5179540000000  0.5420930000000 1.0
C      1  0.5178970000000  0.5417750000000  0.5792340000000 1.0
C      1  0.5417190000000  0.5789160000000  0.5182720000000 1.0
C      1  0.4205050000000  0.5179560000000  0.4580180000000 1.0
C      1  0.4205020000000  0.4815250000000  0.5420900000000 1.0
C      1  0.5788620000000  0.4815200000000  0.4580240000000 1.0
C      1  0.4814690000000  0.5417730000000  0.4208760000000 1.0
C      1  0.4814630000000  0.4577050000000  0.5792350000000 1.0
C      1  0.5179000000000  0.4577010000000  0.4208790000000 1.0
C      1  0.4576490000000  0.5789180000000  0.4818370000000 1.0
C      1  0.4576440000000  0.4205620000000  0.5182730000000 1.0
C      1  0.5417160000000  0.4205590000000  0.4818430000000 1.0
C      1  0.5788590000000  0.4815210000000  0.5420940000000 1.0
C      1  0.5178950000000  0.4577050000000  0.5792360000000 1.0
C      1  0.5417150000000  0.4205590000000  0.5182750000000 1.0
C      1  0.4205050000000  0.4815230000000  0.4580190000000 1.0
C      1  0.4205030000000  0.5179580000000  0.5420890000000 1.0
C      1  0.5788620000000  0.5179520000000  0.4580230000000 1.0
C      1  0.4814670000000  0.4577020000000  0.4208780000000 1.0
C      1  0.4814650000000  0.5417760000000  0.5792330000000 1.0
C      1  0.5179020000000  0.5417720000000  0.4208770000000 1.0
C      1  0.4576450000000  0.4205610000000  0.4818410000000 1.0
C      1  0.4576480000000  0.5789190000000  0.5182700000000 1.0
C      1  0.5417200000000  0.5789160000000  0.4818400000000 1.0
C      1  0.5359930000000  0.4701780000000  0.5244200000000 1.0
C      1  0.4701220000000  0.5241020000000  0.5363670000000 1.0
C      1  0.5240460000000  0.5360500000000  0.4704960000000 1.0
C      1  0.4633700000000  0.4701790000000  0.4756940000000 1.0
C      1  0.4633700000000  0.5293000000000  0.5244170000000 1.0
C      1  0.5359960000000  0.5292970000000  0.4756950000000 1.0
C      1  0.5292440000000  0.5240990000000  0.4637440000000 1.0
C      1  0.5292410000000  0.4753770000000  0.5363700000000 1.0
C      1  0.4701230000000  0.4753760000000  0.4637440000000 1.0
C      1  0.4753200000000  0.5360520000000  0.5296150000000 1.0
C      1  0.4753200000000  0.4634260000000  0.4704960000000 1.0
C      1  0.5240430000000  0.4634260000000  0.5296180000000 1.0
C      1  0.5359950000000  0.5292980000000  0.5244190000000 1.0
C      1  0.4701210000000  0.4753780000000  0.5363680000000 1.0
C      1  0.5240440000000  0.4634250000000  0.4704980000000 1.0
C      1  0.4633710000000  0.5292990000000  0.4756920000000 1.0
C      1  0.4633690000000  0.4701800000000  0.5244180000000 1.0
C      1  0.5359950000000  0.4701770000000  0.4756960000000 1.0
C      1  0.5292430000000  0.4753750000000  0.4637450000000 1.0
C      1  0.5292420000000  0.5241010000000  0.5363690000000 1.0
C      1  0.4701240000000  0.5241010000000  0.4637420000000 1.0
C      1  0.4753190000000  0.4634270000000  0.5296170000000 1.0
C      1  0.4753220000000  0.5360510000000  0.4704950000000 1.0
C      1  0.5240440000000  0.5360510000000  0.5296160000000 1.0
C      1  0.5506080000000  0.5805100000000  0.4924360000000 1.0
C      1  0.5804540000000  0.4921180000000  0.5509830000000 1.0
C      1  0.4920610000000  0.5506640000000  0.5808280000000 1.0
C      1  0.4487600000000  0.5805130000000  0.5076730000000 1.0
C      1  0.4487570000000  0.4189660000000  0.4924370000000 1.0
C      1  0.5506040000000  0.4189640000000  0.5076800000000 1.0
C      1  0.4189100000000  0.4921190000000  0.4491300000000 1.0
C      1  0.4189080000000  0.5073620000000  0.5509780000000 1.0
C      1  0.5804570000000  0.5073550000000  0.4491350000000 1.0
C      1  0.5073060000000  0.5506600000000  0.4192820000000 1.0
C      1  0.5072990000000  0.4488160000000  0.5808310000000 1.0
C      1  0.4920630000000  0.4488130000000  0.4192840000000 1.0
C      1  0.5506040000000  0.4189640000000  0.4924390000000 1.0
C      1  0.5804540000000  0.5073580000000  0.5509820000000 1.0
C      1  0.4920590000000  0.4488170000000  0.5808310000000 1.0
C      1  0.4487560000000  0.4189670000000  0.5076770000000 1.0
C      1  0.4487610000000  0.5805130000000  0.4924330000000 1.0
C      1  0.5506080000000  0.5805110000000  0.5076760000000 1.0
C      1  0.4189110000000  0.5073590000000  0.4491300000000 1.0
C      1  0.4189070000000  0.4921220000000  0.5509780000000 1.0
C      1  0.5804570000000  0.4921150000000  0.4491350000000 1.0
C      1  0.5073030000000  0.4488130000000  0.4192840000000 1.0
C      1  0.5073010000000  0.5506640000000  0.5808290000000 1.0
C      1  0.4920660000000  0.5506610000000  0.4192820000000 1.0
C      1  0.5182890000000  0.5474120000000  0.5315840000000 1.0
C      1  0.5473560000000  0.5312660000000  0.5186640000000 1.0
C      1  0.5312100000000  0.5183460000000  0.5477300000000 1.0
C      1  0.4810780000000  0.5474120000000  0.4685260000000 1.0
C      1  0.4810730000000  0.4520660000000  0.5315850000000 1.0
C      1  0.5182890000000  0.4520640000000  0.4685300000000 1.0
C      1  0.4520100000000  0.5312680000000  0.4814470000000 1.0
C      1  0.4520080000000  0.4682120000000  0.5186620000000 1.0
C      1  0.5473550000000  0.4682090000000  0.4814520000000 1.0
C      1  0.4681560000000  0.5183450000000  0.4523820000000 1.0
C      1  0.4681520000000  0.4811340000000  0.5477290000000 1.0
C      1  0.5312120000000  0.4811300000000  0.4523840000000 1.0
C      1  0.5182870000000  0.4520660000000  0.5315860000000 1.0
C      1  0.5473540000000  0.4682090000000  0.5186650000000 1.0
C      1  0.5312090000000  0.4811320000000  0.5477310000000 1.0
C      1  0.4810750000000  0.4520650000000  0.4685280000000 1.0
C      1  0.4810760000000  0.5474130000000  0.5315830000000 1.0
C      1  0.5182910000000  0.5474110000000  0.4685270000000 1.0
C      1  0.4520090000000  0.4682110000000  0.4814490000000 1.0
C      1  0.4520090000000  0.5312690000000  0.5186610000000 1.0
C      1  0.5473570000000  0.5312650000000  0.4814500000000 1.0
C      1  0.4681550000000  0.4811320000000  0.4523830000000 1.0
C      1  0.4681530000000  0.5183470000000  0.5477280000000 1.0
C      1  0.5312120000000  0.5183440000000  0.4523840000000 1.0
C      1  0.4761410000000  0.5121450000000  0.4305790000000 1.0
C      1  0.5120890000000  0.4302610000000  0.4765140000000 1.0
C      1  0.4302050000000  0.4761970000000  0.5124620000000 1.0
C      1  0.5232240000000  0.5121470000000  0.5695330000000 1.0
C      1  0.5232280000000  0.4873290000000  0.4305810000000 1.0
C      1  0.4761360000000  0.4873330000000  0.5695320000000 1.0
C      1  0.4872730000000  0.4302630000000  0.5236010000000 1.0
C      1  0.4872770000000  0.5692150000000  0.4765100000000 1.0
C      1  0.5120910000000  0.5692150000000  0.5235990000000 1.0
C      1  0.5691590000000  0.4761930000000  0.4876510000000 1.0
C      1  0.5691590000000  0.5232810000000  0.5124650000000 1.0
C      1  0.4302070000000  0.5232840000000  0.4876470000000 1.0
C      1  0.4761400000000  0.4873300000000  0.4305800000000 1.0
C      1  0.5120920000000  0.5692140000000  0.4765110000000 1.0
C      1  0.4302060000000  0.5232840000000  0.5124610000000 1.0
C      1  0.5232240000000  0.4873320000000  0.5695340000000 1.0
C      1  0.5232280000000  0.5121440000000  0.4305800000000 1.0
C      1  0.4761370000000  0.5121480000000  0.5695320000000 1.0
C      1  0.4872760000000  0.5692160000000  0.5235980000000 1.0
C      1  0.4872740000000  0.4302620000000  0.4765140000000 1.0
C      1  0.5120870000000  0.4302620000000  0.5236020000000 1.0
C      1  0.5691590000000  0.5232810000000  0.4876500000000 1.0
C      1  0.5691580000000  0.4761930000000  0.5124660000000 1.0
C      1  0.4302060000000  0.4761960000000  0.4876480000000 1.0
C      1  0.4654250000000  0.5643010000000  0.4629160000000 1.0
C      1  0.5642450000000  0.4625990000000  0.4657990000000 1.0
C      1  0.4625420000000  0.4654810000000  0.5646190000000 1.0
C      1  0.5339430000000  0.5643010000000  0.5371930000000 1.0
C      1  0.5339420000000  0.4351740000000  0.4629210000000 1.0
C      1  0.4654200000000  0.4351780000000  0.5371940000000 1.0
C      1  0.4351180000000  0.4626030000000  0.5343150000000 1.0
C      1  0.4351220000000  0.5368770000000  0.4657940000000 1.0
C      1  0.5642450000000  0.5368750000000  0.5343170000000 1.0
C      1  0.5368210000000  0.4654760000000  0.4354960000000 1.0
C      1  0.5368190000000  0.5339990000000  0.5646190000000 1.0
C      1  0.4625470000000  0.5339980000000  0.4354920000000 1.0
C      1  0.4654220000000  0.4351760000000  0.4629190000000 1.0
C      1  0.5642470000000  0.5368740000000  0.4657970000000 1.0
C      1  0.4625440000000  0.5340010000000  0.5646170000000 1.0
C      1  0.5339400000000  0.4351760000000  0.5371960000000 1.0
C      1  0.5339450000000  0.5642990000000  0.4629180000000 1.0
C      1  0.4654230000000  0.5643030000000  0.5371920000000 1.0
C      1  0.4351200000000  0.5368790000000  0.5343140000000 1.0
C      1  0.4351200000000  0.4626020000000  0.4657950000000 1.0
C      1  0.5642430000000  0.4626000000000  0.5343190000000 1.0
C      1  0.5368220000000  0.5339960000000  0.4354940000000 1.0
C      1  0.5368170000000  0.4654790000000  0.5646210000000 1.0
C      1  0.4625460000000  0.4654780000000  0.4354930000000 1.0
C      1  0.5166760000000  0.4172070000000  0.5201140000000 1.0
C      1  0.4171510000000  0.5197960000000  0.5170500000000 1.0
C      1  0.5197410000000  0.5167320000000  0.4175250000000 1.0
C      1  0.4826850000000  0.4172070000000  0.4800020000000 1.0
C      1  0.4826870000000  0.5822710000000  0.5201100000000 1.0
C      1  0.5166810000000  0.5822690000000  0.4799990000000 1.0
C      1  0.5822150000000  0.5197920000000  0.4830620000000 1.0
C      1  0.5822130000000  0.4796810000000  0.5170550000000 1.0
C      1  0.4171510000000  0.4796850000000  0.4830580000000 1.0
C      1  0.4796250000000  0.5167370000000  0.5825870000000 1.0
C      1  0.4796290000000  0.4827410000000  0.4175250000000 1.0
C      1  0.5197350000000  0.4827440000000  0.5825890000000 1.0
C      1  0.5166800000000  0.5822700000000  0.5201100000000 1.0
C      1  0.4171500000000  0.4796850000000  0.5170510000000 1.0
C      1  0.5197400000000  0.4827400000000  0.4175260000000 1.0
C      1  0.4826890000000  0.5822700000000  0.4799980000000 1.0
C      1  0.4826830000000  0.4172080000000  0.5201130000000 1.0
C      1  0.5166770000000  0.4172060000000  0.4800030000000 1.0
C      1  0.5822140000000  0.4796810000000  0.4830630000000 1.0
C      1  0.5822140000000  0.5197930000000  0.5170540000000 1.0
C      1  0.4171520000000  0.5197960000000  0.4830570000000 1.0
C      1  0.4796240000000  0.4827450000000  0.5825880000000 1.0
C      1  0.4796290000000  0.5167340000000  0.4175240000000 1.0
C      1  0.5197360000000  0.5167360000000  0.5825880000000 1.0
C      1  0.5269470000000  0.4436330000000  0.4405670000000 1.0
C      1  0.4435770000000  0.4402490000000  0.5273200000000 1.0
C      1  0.4401930000000  0.5270030000000  0.4439510000000 1.0
C      1  0.4724150000000  0.4436370000000  0.5595480000000 1.0
C      1  0.4724210000000  0.5558410000000  0.4405630000000 1.0
C      1  0.5269460000000  0.5558420000000  0.5595470000000 1.0
C      1  0.5557850000000  0.4402450000000  0.4727950000000 1.0
C      1  0.5557860000000  0.5592290000000  0.5273210000000 1.0
C      1  0.4435810000000  0.5592310000000  0.4727890000000 1.0
C      1  0.5591730000000  0.5270030000000  0.5561600000000 1.0
C      1  0.5591750000000  0.4724720000000  0.4439550000000 1.0
C      1  0.4401890000000  0.4724770000000  0.5561580000000 1.0
C      1  0.5269500000000  0.5558400000000  0.4405640000000 1.0
C      1  0.4435800000000  0.5592320000000  0.5273180000000 1.0
C      1  0.4401920000000  0.4724740000000  0.4439520000000 1.0
C      1  0.4724180000000  0.5558440000000  0.5595460000000 1.0
C      1  0.4724180000000  0.4436350000000  0.4405650000000 1.0
C      1  0.5269440000000  0.4436360000000  0.5595500000000 1.0
C      1  0.5557880000000  0.5592280000000  0.4727920000000 1.0
C      1  0.5557830000000  0.4402460000000  0.5273240000000 1.0
C      1  0.4435780000000  0.4402480000000  0.4727920000000 1.0
C      1  0.5591710000000  0.4724740000000  0.5561620000000 1.0
C      1  0.5591760000000  0.5270000000000  0.4439540000000 1.0
C      1  0.4401900000000  0.5270060000000  0.5561570000000 1.0
C      1  0.5288500000000  0.5844590000000  0.4816130000000 1.0
C      1  0.5844030000000  0.4812950000000  0.5292240000000 1.0
C      1  0.4812390000000  0.5289060000000  0.5847770000000 1.0
C      1  0.4705190000000  0.5844610000000  0.5184960000000 1.0
C      1  0.4705160000000  0.4150170000000  0.4816150000000 1.0
C      1  0.5288450000000  0.4150170000000  0.5185010000000 1.0
C      1  0.4149610000000  0.4812980000000  0.4708890000000 1.0
C      1  0.4149600000000  0.5181830000000  0.5292190000000 1.0
C      1  0.5844050000000  0.5181780000000  0.4708930000000 1.0
C      1  0.5181270000000  0.5289010000000  0.4153350000000 1.0
C      1  0.5181210000000  0.4705750000000  0.5847790000000 1.0
C      1  0.4812420000000  0.4705720000000  0.4153350000000 1.0
C      1  0.5288460000000  0.4150160000000  0.4816170000000 1.0
C      1  0.5844040000000  0.5181790000000  0.5292230000000 1.0
C      1  0.4812370000000  0.4705760000000  0.5847780000000 1.0
C      1  0.4705150000000  0.4150180000000  0.5184990000000 1.0
C      1  0.4705200000000  0.5844600000000  0.4816120000000 1.0
C      1  0.5288490000000  0.5844600000000  0.5184970000000 1.0
C      1  0.4149620000000  0.5181820000000  0.4708890000000 1.0
C      1  0.4149590000000  0.4812990000000  0.5292190000000 1.0
C      1  0.5844040000000  0.4812940000000  0.4708940000000 1.0
C      1  0.5181260000000  0.4705710000000  0.4153360000000 1.0
C      1  0.5181220000000  0.5289050000000  0.5847780000000 1.0
C      1  0.4812430000000  0.5289020000000  0.4153340000000 1.0
C      1  0.5634810000000  0.4777430000000  0.5000590000000 1.0
C      1  0.4776860000000  0.4997410000000  0.5638550000000 1.0
C      1  0.4358840000000  0.5217340000000  0.5000540000000 1.0
C      1  0.5216780000000  0.4997370000000  0.4362580000000 1.0
C      1  0.4996840000000  0.5635370000000  0.4780610000000 1.0
C      1  0.5216740000000  0.4997390000000  0.5638560000000 1.0
C      1  0.4776900000000  0.4997380000000  0.4362570000000 1.0
C      1  0.4996800000000  0.4359400000000  0.5220520000000 1.0
C      1  0.4358830000000  0.4777460000000  0.5000550000000 1.0
C      1  0.5634820000000  0.5217310000000  0.5000580000000 1.0
C      1  0.4996830000000  0.5635380000000  0.5220490000000 1.0
C      1  0.4996810000000  0.4359390000000  0.4780640000000 1.0
C      1  0.5485030000000  0.4509160000000  0.4512390000000 1.0
C      1  0.4508620000000  0.5485610000000  0.5488740000000 1.0
C      1  0.4508600000000  0.4509210000000  0.5488760000000 1.0
C      1  0.4508650000000  0.5485590000000  0.4512340000000 1.0
C      1  0.5485050000000  0.5485560000000  0.4512370000000 1.0
C      1  0.5485000000000  0.4509180000000  0.5488790000000 1.0
C      1  0.5485020000000  0.5485590000000  0.5488770000000 1.0
C      1  0.4508620000000  0.4509190000000  0.4512360000000 1.0
END
