TITL C-855863-9781-213 14.1431208748937 1000000 -4312.89898502096 0 0 600 (Cs) n - 1
REM
REM in /scratch/bkarasulu/Larger-Clusters
REM
REM
REM
REM
REM
REM ./C.cell (28d0ae7d613b82ecca3ae8fabf5dfced)
REM
REM compiler GCC version 9.2.1 20190827 (Red Hat 9.2.1-1)
REM options -cpp -mtune=generic -march=x86-64 -g -O0 -fpre-include=/usr/include/finclude/math-vector-fortran.h
REM seed 1892179141 -163128638 1580532895 201810803 -447470465 1699825362 -1579603727 553399812 -865032046 142231978 1932862748 1712433109 -223424246 -1205993697 -710393427 1943119818 -729301272 -799875399 1451918295 747094219 -1385286197 -1989263817 -790634646 -270119146 1117312386 1808046328 1538078665 1112270816 -1788753551 -1337588805 672924347 -2063776071 -1340833580
REM
CELL 1.54180  100.00000  100.00000  100.00000   90.00000   90.00000   90.00000
LATT -1
SFAC C  
C      1  0.5233840000000  0.4228250000000  0.5341970000000 1.0
C      1  0.4229940000000  0.5335260000000  0.5234810000000 1.0
C      1  0.5345450000000  0.5233930000000  0.4223290000000 1.0
C      1  0.4765660000000  0.4229340000000  0.4661240000000 1.0
C      1  0.4757910000000  0.5786020000000  0.5357790000000 1.0
C      1  0.5232570000000  0.5745260000000  0.4675410000000 1.0
C      1  0.5792210000000  0.5335680000000  0.4759660000000 1.0
C      1  0.5775560000000  0.4658010000000  0.5246270000000 1.0
C      1  0.4227130000000  0.4660920000000  0.4769950000000 1.0
C      1  0.4664050000000  0.5228660000000  0.5748310000000 1.0
C      1  0.4660920000000  0.4766250000000  0.4230360000000 1.0
C      1  0.5334220000000  0.4763210000000  0.5775280000000 1.0
C      1  0.5242050000000  0.5786030000000  0.5357800000000 1.0
C      1  0.4224440000000  0.4657990000000  0.5246250000000 1.0
C      1  0.5339110000000  0.4766260000000  0.4230370000000 1.0
C      1  0.4767410000000  0.5745260000000  0.4675400000000 1.0
C      1  0.4766180000000  0.4228240000000  0.5341960000000 1.0
C      1  0.5234380000000  0.4229350000000  0.4661250000000 1.0
C      1  0.5772890000000  0.4660950000000  0.4769980000000 1.0
C      1  0.5770050000000  0.5335290000000  0.5234840000000 1.0
C      1  0.4207790000000  0.5335650000000  0.4759630000000 1.0
C      1  0.4665770000000  0.4763200000000  0.5775270000000 1.0
C      1  0.4654560000000  0.5233920000000  0.4223270000000 1.0
C      1  0.5335920000000  0.5228670000000  0.5748320000000 1.0
C      1  0.5660660000000  0.5171820000000  0.5547880000000 1.0
C      1  0.5169120000000  0.5536660000000  0.5666560000000 1.0
C      1  0.5545550000000  0.5656130000000  0.5188270000000 1.0
C      1  0.4328970000000  0.5179600000000  0.4448060000000 1.0
C      1  0.4337200000000  0.4817080000000  0.5558090000000 1.0
C      1  0.5663240000000  0.4823460000000  0.4455990000000 1.0
C      1  0.4820830000000  0.5533810000000  0.4353330000000 1.0
C      1  0.4821160000000  0.4446240000000  0.5671400000000 1.0
C      1  0.5178440000000  0.4453680000000  0.4340810000000 1.0
C      1  0.4456010000000  0.5638200000000  0.4831810000000 1.0
C      1  0.4453650000000  0.4338020000000  0.5182610000000 1.0
C      1  0.5545280000000  0.4340970000000  0.4824980000000 1.0
C      1  0.5662790000000  0.4817100000000  0.5558110000000 1.0
C      1  0.5178840000000  0.4446240000000  0.5671400000000 1.0
C      1  0.5546360000000  0.4338040000000  0.5182630000000 1.0
C      1  0.4336780000000  0.4823440000000  0.4455970000000 1.0
C      1  0.4339320000000  0.5171800000000  0.5547860000000 1.0
C      1  0.5671040000000  0.5179630000000  0.4448080000000 1.0
C      1  0.4821600000000  0.4453680000000  0.4340800000000 1.0
C      1  0.4830840000000  0.5536660000000  0.5666550000000 1.0
C      1  0.5179170000000  0.5533810000000  0.4353340000000 1.0
C      1  0.4454740000000  0.4340950000000  0.4824970000000 1.0
C      1  0.4454420000000  0.5656110000000  0.5188260000000 1.0
C      1  0.5543980000000  0.5638220000000  0.4831820000000 1.0
C      1  0.5077300000000  0.4034190000000  0.4927560000000 1.0
C      1  0.4029020000000  0.4923750000000  0.5082810000000 1.0
C      1  0.4926490000000  0.5083580000000  0.4032600000000 1.0
C      1  0.4922700000000  0.4034430000000  0.5074780000000 1.0
C      1  0.4923110000000  0.5955960000000  0.4942900000000 1.0
C      1  0.5078370000000  0.5972730000000  0.5089230000000 1.0
C      1  0.5975950000000  0.4922860000000  0.4928640000000 1.0
C      1  0.5974800000000  0.5070620000000  0.5082810000000 1.0
C      1  0.4018950000000  0.5070880000000  0.4927510000000 1.0
C      1  0.5070840000000  0.5110980000000  0.5945240000000 1.0
C      1  0.5073490000000  0.4927910000000  0.4035830000000 1.0
C      1  0.4924850000000  0.4961900000000  0.5946600000000 1.0
C      1  0.5076870000000  0.5955960000000  0.4942900000000 1.0
C      1  0.4025190000000  0.5070590000000  0.5082780000000 1.0
C      1  0.4926540000000  0.4927910000000  0.4035830000000 1.0
C      1  0.4921590000000  0.5972730000000  0.5089230000000 1.0
C      1  0.4922730000000  0.4034190000000  0.4927560000000 1.0
C      1  0.5077330000000  0.4034430000000  0.5074780000000 1.0
C      1  0.5981050000000  0.5070910000000  0.4927540000000 1.0
C      1  0.5970980000000  0.4923780000000  0.5082840000000 1.0
C      1  0.4024050000000  0.4922830000000  0.4928610000000 1.0
C      1  0.5075120000000  0.4961900000000  0.5946600000000 1.0
C      1  0.5073540000000  0.5083590000000  0.4032600000000 1.0
C      1  0.4929120000000  0.5110980000000  0.5945240000000 1.0
C      1  0.4559700000000  0.5168800000000  0.4687670000000 1.0
C      1  0.5176000000000  0.4719910000000  0.4614690000000 1.0
C      1  0.4713100000000  0.4614450000000  0.5171940000000 1.0
C      1  0.5387200000000  0.5190030000000  0.5267420000000 1.0
C      1  0.5389630000000  0.4828090000000  0.4720970000000 1.0
C      1  0.4616190000000  0.4831720000000  0.5279920000000 1.0
C      1  0.4821830000000  0.4714590000000  0.5384570000000 1.0
C      1  0.4732480000000  0.5292720000000  0.4559700000000 1.0
C      1  0.5174880000000  0.5292340000000  0.5381770000000 1.0
C      1  0.5286280000000  0.4606650000000  0.4815040000000 1.0
C      1  0.5296030000000  0.5430720000000  0.5211180000000 1.0
C      1  0.4651530000000  0.5383920000000  0.4772900000000 1.0
C      1  0.4610380000000  0.4828070000000  0.4720960000000 1.0
C      1  0.5267520000000  0.5292730000000  0.4559700000000 1.0
C      1  0.4703950000000  0.5430710000000  0.5211170000000 1.0
C      1  0.5383800000000  0.4831740000000  0.5279930000000 1.0
C      1  0.5440300000000  0.5168810000000  0.4687680000000 1.0
C      1  0.4612780000000  0.5190010000000  0.5267410000000 1.0
C      1  0.4825100000000  0.5292340000000  0.5381760000000 1.0
C      1  0.4824020000000  0.4719910000000  0.4614680000000 1.0
C      1  0.5178170000000  0.4714600000000  0.5384570000000 1.0
C      1  0.5348470000000  0.5383930000000  0.4772910000000 1.0
C      1  0.5286910000000  0.4614460000000  0.5171940000000 1.0
C      1  0.4713740000000  0.4606640000000  0.4815030000000 1.0
C      1  0.4481100000000  0.4937780000000  0.5874590000000 1.0
C      1  0.4929090000000  0.5856090000000  0.4486700000000 1.0
C      1  0.5871320000000  0.4465660000000  0.4933590000000 1.0
C      1  0.5535760000000  0.4927570000000  0.4128940000000 1.0
C      1  0.5514170000000  0.5078520000000  0.5869860000000 1.0
C      1  0.4462440000000  0.5070060000000  0.4125060000000 1.0
C      1  0.5071060000000  0.5868400000000  0.5547860000000 1.0
C      1  0.5071240000000  0.4127370000000  0.4466200000000 1.0
C      1  0.4929030000000  0.4123220000000  0.5537140000000 1.0
C      1  0.4129210000000  0.4465570000000  0.5075850000000 1.0
C      1  0.4124000000000  0.5528590000000  0.4933660000000 1.0
C      1  0.5870630000000  0.5528130000000  0.5075580000000 1.0
C      1  0.4485800000000  0.5078500000000  0.5869840000000 1.0
C      1  0.4928810000000  0.4127370000000  0.4466200000000 1.0
C      1  0.5875980000000  0.5528620000000  0.4933690000000 1.0
C      1  0.5537580000000  0.5070080000000  0.4125070000000 1.0
C      1  0.5518880000000  0.4937790000000  0.5874610000000 1.0
C      1  0.4464270000000  0.4927550000000  0.4128920000000 1.0
C      1  0.5070990000000  0.4123220000000  0.5537140000000 1.0
C      1  0.5070900000000  0.5856090000000  0.4486700000000 1.0
C      1  0.4928890000000  0.5868400000000  0.5547860000000 1.0
C      1  0.4129350000000  0.5528110000000  0.5075560000000 1.0
C      1  0.4128700000000  0.4465630000000  0.4933560000000 1.0
C      1  0.5870810000000  0.4465600000000  0.5075880000000 1.0
C      1  0.4711050000000  0.5361120000000  0.5722010000000 1.0
C      1  0.5365390000000  0.5711130000000  0.4719420000000 1.0
C      1  0.5747660000000  0.4696900000000  0.5384080000000 1.0
C      1  0.5301450000000  0.5367570000000  0.4259170000000 1.0
C      1  0.5294930000000  0.4625600000000  0.5750270000000 1.0
C      1  0.4703630000000  0.4630590000000  0.4260720000000 1.0
C      1  0.4624000000000  0.5749790000000  0.5311720000000 1.0
C      1  0.4630870000000  0.4260720000000  0.4706320000000 1.0
C      1  0.5370430000000  0.4257270000000  0.5300580000000 1.0
C      1  0.4258400000000  0.4706150000000  0.4634980000000 1.0
C      1  0.4262680000000  0.5287320000000  0.5367630000000 1.0
C      1  0.5760000000000  0.5296800000000  0.4622380000000 1.0
C      1  0.4705060000000  0.4625590000000  0.5750260000000 1.0
C      1  0.5369170000000  0.4260730000000  0.4706340000000 1.0
C      1  0.5737300000000  0.5287340000000  0.5367650000000 1.0
C      1  0.5296410000000  0.4630600000000  0.4260730000000 1.0
C      1  0.5288920000000  0.5361130000000  0.5722020000000 1.0
C      1  0.4698560000000  0.5367560000000  0.4259160000000 1.0
C      1  0.4629580000000  0.4257250000000  0.5300570000000 1.0
C      1  0.4634600000000  0.5711120000000  0.4719400000000 1.0
C      1  0.5375970000000  0.5749800000000  0.5311730000000 1.0
C      1  0.4240000000000  0.5296780000000  0.4622360000000 1.0
C      1  0.4252340000000  0.4696880000000  0.5384060000000 1.0
C      1  0.5741620000000  0.4706180000000  0.4635010000000 1.0
C      1  0.4361670000000  0.5075170000000  0.4354680000000 1.0
C      1  0.5075390000000  0.4356870000000  0.4368340000000 1.0
C      1  0.4358310000000  0.4367220000000  0.5079190000000 1.0
C      1  0.5632300000000  0.5071750000000  0.5647070000000 1.0
C      1  0.5636200000000  0.4925690000000  0.4357610000000 1.0
C      1  0.4368750000000  0.4921890000000  0.5651610000000 1.0
C      1  0.4924580000000  0.4350260000000  0.5641640000000 1.0
C      1  0.4925110000000  0.5626110000000  0.4387750000000 1.0
C      1  0.5074260000000  0.5638700000000  0.5643760000000 1.0
C      1  0.5641760000000  0.4368190000000  0.4928000000000 1.0
C      1  0.5639770000000  0.5622820000000  0.5082830000000 1.0
C      1  0.4358310000000  0.5615530000000  0.4932670000000 1.0
C      1  0.4363820000000  0.4925660000000  0.4357590000000 1.0
C      1  0.5074890000000  0.5626120000000  0.4387760000000 1.0
C      1  0.4360210000000  0.5622800000000  0.5082810000000 1.0
C      1  0.5631230000000  0.4921920000000  0.5651630000000 1.0
C      1  0.5638350000000  0.5075190000000  0.4354700000000 1.0
C      1  0.4367670000000  0.5071720000000  0.5647050000000 1.0
C      1  0.4925700000000  0.5638700000000  0.5643760000000 1.0
C      1  0.4924650000000  0.4356860000000  0.4368330000000 1.0
C      1  0.5075420000000  0.4350260000000  0.5641640000000 1.0
C      1  0.5641670000000  0.5615550000000  0.4932690000000 1.0
C      1  0.5641710000000  0.4367240000000  0.5079200000000 1.0
C      1  0.4358270000000  0.4368160000000  0.4927980000000 1.0
C      1  0.5173080000000  0.5423250000000  0.4262980000000 1.0
C      1  0.5431520000000  0.4252650000000  0.5175580000000 1.0
C      1  0.4257620000000  0.5162670000000  0.5429940000000 1.0
C      1  0.4839210000000  0.5410920000000  0.5741440000000 1.0
C      1  0.4828120000000  0.4567760000000  0.4254280000000 1.0
C      1  0.5171180000000  0.4562650000000  0.5756010000000 1.0
C      1  0.4570340000000  0.4256010000000  0.4831580000000 1.0
C      1  0.4562280000000  0.5750730000000  0.5184670000000 1.0
C      1  0.5428110000000  0.5721730000000  0.4842850000000 1.0
C      1  0.5764740000000  0.5173070000000  0.4557280000000 1.0
C      1  0.5751590000000  0.4821820000000  0.5445310000000 1.0
C      1  0.4248890000000  0.4829680000000  0.4569880000000 1.0
C      1  0.5171910000000  0.4567770000000  0.4254290000000 1.0
C      1  0.5437690000000  0.5750740000000  0.5184680000000 1.0
C      1  0.4248410000000  0.4821790000000  0.5445290000000 1.0
C      1  0.4828810000000  0.4562640000000  0.5756010000000 1.0
C      1  0.4826930000000  0.5423240000000  0.4262980000000 1.0
C      1  0.5160750000000  0.5410930000000  0.5741440000000 1.0
C      1  0.4571870000000  0.5721710000000  0.4842840000000 1.0
C      1  0.4568500000000  0.4252630000000  0.5175570000000 1.0
C      1  0.5429690000000  0.4256020000000  0.4831590000000 1.0
C      1  0.5751130000000  0.4829710000000  0.4569900000000 1.0
C      1  0.5742360000000  0.5162690000000  0.5429960000000 1.0
C      1  0.4235270000000  0.5173050000000  0.4557250000000 1.0
C      1  0.4683500000000  0.5282550000000  0.5034590000000 1.0
C      1  0.5330460000000  0.5088870000000  0.4754000000000 1.0
C      1  0.5071280000000  0.4784930000000  0.5309750000000 1.0
C      1  0.5280270000000  0.5361530000000  0.4905060000000 1.0
C      1  0.5221450000000  0.4689380000000  0.5063150000000 1.0
C      1  0.4782400000000  0.4686900000000  0.4918890000000 1.0
C      1  0.4690870000000  0.5082130000000  0.5207570000000 1.0
C      1  0.4683400000000  0.4949000000000  0.4777770000000 1.0
C      1  0.5309530000000  0.4941780000000  0.5210190000000 1.0
C      1  0.4929460000000  0.4798580000000  0.4684220000000 1.0
C      1  0.4928890000000  0.5240180000000  0.5287420000000 1.0
C      1  0.5068940000000  0.5266100000000  0.4638840000000 1.0
C      1  0.4778560000000  0.4689380000000  0.5063140000000 1.0
C      1  0.5316610000000  0.4949010000000  0.4777780000000 1.0
C      1  0.5071090000000  0.5240180000000  0.5287420000000 1.0
C      1  0.5217620000000  0.4686910000000  0.4918900000000 1.0
C      1  0.5316490000000  0.5282560000000  0.5034600000000 1.0
C      1  0.4719720000000  0.5361520000000  0.4905050000000 1.0
C      1  0.4690470000000  0.4941770000000  0.5210180000000 1.0
C      1  0.4669550000000  0.5088860000000  0.4753990000000 1.0
C      1  0.5309120000000  0.5082140000000  0.5207580000000 1.0
C      1  0.4931060000000  0.5266090000000  0.4638840000000 1.0
C      1  0.4928720000000  0.4784930000000  0.5309750000000 1.0
C      1  0.5070550000000  0.4798580000000  0.4684220000000 1.0
C      1  0.5501080000000  0.4648470000000  0.5649610000000 1.0
C      1  0.4647960000000  0.5647410000000  0.5518050000000 1.0
C      1  0.5652750000000  0.5498670000000  0.4649270000000 1.0
C      1  0.4498790000000  0.4653160000000  0.4364860000000 1.0
C      1  0.4497790000000  0.5351020000000  0.5636130000000 1.0
C      1  0.5514970000000  0.5354280000000  0.4350650000000 1.0
C      1  0.5356810000000  0.5634440000000  0.4502540000000 1.0
C      1  0.5348990000000  0.4357620000000  0.5507760000000 1.0
C      1  0.4650110000000  0.4360320000000  0.4499570000000 1.0
C      1  0.4358140000000  0.5497910000000  0.5356300000000 1.0
C      1  0.4359670000000  0.4499510000000  0.4653950000000 1.0
C      1  0.5640400000000  0.4495150000000  0.5356000000000 1.0
C      1  0.5502180000000  0.5351030000000  0.5636150000000 1.0
C      1  0.4651020000000  0.4357610000000  0.5507750000000 1.0
C      1  0.5640360000000  0.4499530000000  0.4653970000000 1.0
C      1  0.4485040000000  0.5354260000000  0.4350640000000 1.0
C      1  0.4498920000000  0.4648450000000  0.5649600000000 1.0
C      1  0.5501240000000  0.4653180000000  0.4364870000000 1.0
C      1  0.5349920000000  0.4360330000000  0.4499580000000 1.0
C      1  0.5352000000000  0.5647420000000  0.5518060000000 1.0
C      1  0.4643180000000  0.5634420000000  0.4502530000000 1.0
C      1  0.4359600000000  0.4495130000000  0.5355980000000 1.0
C      1  0.4347240000000  0.5498650000000  0.4649250000000 1.0
C      1  0.5641830000000  0.5497940000000  0.5356310000000 1.0
C      1  0.5922120000000  0.5303630000000  0.4834770000000 1.0
C      1  0.5292720000000  0.4842860000000  0.5896450000000 1.0
C      1  0.4831390000000  0.5913430000000  0.5322540000000 1.0
C      1  0.4098880000000  0.5300130000000  0.5166770000000 1.0
C      1  0.4098270000000  0.4695020000000  0.4841380000000 1.0
C      1  0.5902650000000  0.4694090000000  0.5171850000000 1.0
C      1  0.4695300000000  0.4837500000000  0.4100790000000 1.0
C      1  0.4714390000000  0.5175790000000  0.5874910000000 1.0
C      1  0.5309100000000  0.5165620000000  0.4090990000000 1.0
C      1  0.5161750000000  0.5873730000000  0.4718010000000 1.0
C      1  0.5162980000000  0.4099280000000  0.5306190000000 1.0
C      1  0.4836630000000  0.4100240000000  0.4696460000000 1.0
C      1  0.5901740000000  0.4695050000000  0.4841400000000 1.0
C      1  0.5285580000000  0.5175800000000  0.5874920000000 1.0
C      1  0.4837040000000  0.4099270000000  0.5306190000000 1.0
C      1  0.4097360000000  0.4694060000000  0.5171820000000 1.0
C      1  0.4077870000000  0.5303600000000  0.4834740000000 1.0
C      1  0.5901110000000  0.5300160000000  0.5166800000000 1.0
C      1  0.4690920000000  0.5165610000000  0.4090980000000 1.0
C      1  0.4707260000000  0.4842850000000  0.5896440000000 1.0
C      1  0.5304740000000  0.4837510000000  0.4100800000000 1.0
C      1  0.5163410000000  0.4100240000000  0.4696460000000 1.0
C      1  0.5168570000000  0.5913440000000  0.5322540000000 1.0
C      1  0.4838230000000  0.5873720000000  0.4718000000000 1.0
C      1  0.4686130000000  0.4790190000000  0.5407230000000 1.0
C      1  0.4730820000000  0.5403640000000  0.4658000000000 1.0
C      1  0.5411800000000  0.4687330000000  0.4787810000000 1.0
C      1  0.5316350000000  0.4788010000000  0.4591430000000 1.0
C      1  0.5317960000000  0.5225980000000  0.5396490000000 1.0
C      1  0.4624050000000  0.5200530000000  0.4553840000000 1.0
C      1  0.5219570000000  0.5430690000000  0.5332190000000 1.0
C      1  0.5209660000000  0.4588460000000  0.4682940000000 1.0
C      1  0.4785090000000  0.4589520000000  0.5307770000000 1.0
C      1  0.4588550000000  0.4692390000000  0.5210230000000 1.0
C      1  0.4537200000000  0.5303540000000  0.4756890000000 1.0
C      1  0.5391690000000  0.5318600000000  0.5163950000000 1.0
C      1  0.4682020000000  0.5225970000000  0.5396490000000 1.0
C      1  0.4790360000000  0.4588460000000  0.4682940000000 1.0
C      1  0.5462790000000  0.5303560000000  0.4756900000000 1.0
C      1  0.5375960000000  0.5200550000000  0.4553850000000 1.0
C      1  0.5313870000000  0.4790200000000  0.5407240000000 1.0
C      1  0.4683670000000  0.4788000000000  0.4591420000000 1.0
C      1  0.5214910000000  0.4589520000000  0.5307770000000 1.0
C      1  0.5269180000000  0.5403650000000  0.4658000000000 1.0
C      1  0.4780400000000  0.5430680000000  0.5332180000000 1.0
C      1  0.4608290000000  0.5318580000000  0.5163930000000 1.0
C      1  0.4588220000000  0.4687320000000  0.4787800000000 1.0
C      1  0.5411450000000  0.4692400000000  0.5210240000000 1.0
C      1  0.4706410000000  0.4845370000000  0.5647760000000 1.0
C      1  0.4853600000000  0.5618450000000  0.4715930000000 1.0
C      1  0.5650060000000  0.4699670000000  0.4865010000000 1.0
C      1  0.5293130000000  0.4854950000000  0.4351930000000 1.0
C      1  0.5293600000000  0.5139740000000  0.5628950000000 1.0
C      1  0.4704280000000  0.5131240000000  0.4333730000000 1.0
C      1  0.5141040000000  0.5667120000000  0.5313660000000 1.0
C      1  0.5143260000000  0.4350270000000  0.4703560000000 1.0
C      1  0.4853020000000  0.4349340000000  0.5292340000000 1.0
C      1  0.4345360000000  0.4708170000000  0.5161860000000 1.0
C      1  0.4317250000000  0.5281720000000  0.4857270000000 1.0
C      1  0.5646030000000  0.5295830000000  0.5135270000000 1.0
C      1  0.4706380000000  0.5139730000000  0.5628940000000 1.0
C      1  0.4856770000000  0.4350270000000  0.4703550000000 1.0
C      1  0.5682740000000  0.5281740000000  0.4857290000000 1.0
C      1  0.5295740000000  0.5131250000000  0.4333730000000 1.0
C      1  0.5293580000000  0.4845380000000  0.5647770000000 1.0
C      1  0.4706900000000  0.4854940000000  0.4351920000000 1.0
C      1  0.5146990000000  0.4349340000000  0.5292350000000 1.0
C      1  0.5146390000000  0.5618460000000  0.4715940000000 1.0
C      1  0.4858930000000  0.5667110000000  0.5313650000000 1.0
C      1  0.4353960000000  0.5295800000000  0.5135250000000 1.0
C      1  0.4349950000000  0.4699650000000  0.4864990000000 1.0
C      1  0.5654640000000  0.4708190000000  0.5161880000000 1.0
C      1  0.4395420000000  0.4914650000000  0.4850580000000 1.0
C      1  0.4928130000000  0.4842280000000  0.4404400000000 1.0
C      1  0.4845070000000  0.4407520000000  0.4925790000000 1.0
C      1  0.5595460000000  0.4931740000000  0.5161270000000 1.0
C      1  0.5620130000000  0.5057370000000  0.4841760000000 1.0
C      1  0.4402280000000  0.5075270000000  0.5154920000000 1.0
C      1  0.5071750000000  0.4834250000000  0.5591050000000 1.0
C      1  0.5072310000000  0.5159530000000  0.4422440000000 1.0
C      1  0.4928460000000  0.5136780000000  0.5565660000000 1.0
C      1  0.5155190000000  0.4408980000000  0.5069620000000 1.0
C      1  0.5157160000000  0.5597110000000  0.4945570000000 1.0
C      1  0.4844380000000  0.5616270000000  0.5090270000000 1.0
C      1  0.4379880000000  0.5057350000000  0.4841750000000 1.0
C      1  0.4927700000000  0.5159520000000  0.4422440000000 1.0
C      1  0.4842820000000  0.5597110000000  0.4945570000000 1.0
C      1  0.5597710000000  0.5075290000000  0.5154940000000 1.0
C      1  0.5604580000000  0.4914670000000  0.4850600000000 1.0
C      1  0.4404540000000  0.4931720000000  0.5161250000000 1.0
C      1  0.5071520000000  0.5136780000000  0.5565660000000 1.0
C      1  0.5071890000000  0.4842280000000  0.4404400000000 1.0
C      1  0.4928230000000  0.4834250000000  0.5591050000000 1.0
C      1  0.5155590000000  0.5616280000000  0.5090270000000 1.0
C      1  0.5154950000000  0.4407530000000  0.4925790000000 1.0
C      1  0.4844820000000  0.4408970000000  0.5069620000000 1.0
C      1  0.4750560000000  0.4261730000000  0.4514950000000 1.0
C      1  0.4260700000000  0.4514350000000  0.4754190000000 1.0
C      1  0.4514780000000  0.4753140000000  0.4266110000000 1.0
C      1  0.5247250000000  0.4260710000000  0.5489100000000 1.0
C      1  0.5252600000000  0.5725830000000  0.4526900000000 1.0
C      1  0.4746040000000  0.5747360000000  0.5503930000000 1.0
C      1  0.5737990000000  0.4512370000000  0.5254800000000 1.0
C      1  0.5749420000000  0.5481620000000  0.4751090000000 1.0
C      1  0.4260720000000  0.5481910000000  0.5254920000000 1.0
C      1  0.5482050000000  0.4751170000000  0.5746190000000 1.0
C      1  0.5493530000000  0.5250740000000  0.4256390000000 1.0
C      1  0.4517240000000  0.5248990000000  0.5731150000000 1.0
C      1  0.4747390000000  0.5725820000000  0.4526890000000 1.0
C      1  0.4250570000000  0.5481600000000  0.4751070000000 1.0
C      1  0.4506480000000  0.5250730000000  0.4256370000000 1.0
C      1  0.5253920000000  0.5747360000000  0.5503940000000 1.0
C      1  0.5249480000000  0.4261740000000  0.4514950000000 1.0
C      1  0.4752760000000  0.4260700000000  0.5489090000000 1.0
C      1  0.5739260000000  0.5481940000000  0.5254940000000 1.0
C      1  0.5739330000000  0.4514380000000  0.4754210000000 1.0
C      1  0.4262020000000  0.4512340000000  0.5254780000000 1.0
C      1  0.5482720000000  0.5249010000000  0.5731170000000 1.0
C      1  0.5485250000000  0.4753160000000  0.4266130000000 1.0
C      1  0.4517940000000  0.4751160000000  0.5746170000000 1.0
C      1  0.4241180000000  0.5557450000000  0.4867040000000 1.0
C      1  0.5567260000000  0.4862150000000  0.4246430000000 1.0
C      1  0.4863070000000  0.4240420000000  0.5569700000000 1.0
C      1  0.5756200000000  0.5562580000000  0.5144130000000 1.0
C      1  0.5755290000000  0.4434090000000  0.4865830000000 1.0
C      1  0.4245790000000  0.4433690000000  0.5142450000000 1.0
C      1  0.4440150000000  0.4863820000000  0.5763950000000 1.0
C      1  0.4427430000000  0.5137580000000  0.4240220000000 1.0
C      1  0.5561790000000  0.5139120000000  0.5754870000000 1.0
C      1  0.5138400000000  0.4243900000000  0.4434390000000 1.0
C      1  0.5140440000000  0.5755080000000  0.5583420000000 1.0
C      1  0.4861640000000  0.5741670000000  0.4450040000000 1.0
C      1  0.4244730000000  0.4434060000000  0.4865810000000 1.0
C      1  0.5572590000000  0.5137600000000  0.4240240000000 1.0
C      1  0.4859520000000  0.5755080000000  0.5583420000000 1.0
C      1  0.5754220000000  0.4433710000000  0.5142470000000 1.0
C      1  0.5758800000000  0.5557470000000  0.4867060000000 1.0
C      1  0.4243780000000  0.5562560000000  0.5144110000000 1.0
C      1  0.4438180000000  0.5139100000000  0.5754860000000 1.0
C      1  0.4432760000000  0.4862130000000  0.4246420000000 1.0
C      1  0.5559830000000  0.4863840000000  0.5763970000000 1.0
C      1  0.5138350000000  0.5741670000000  0.4450040000000 1.0
C      1  0.5136940000000  0.4240420000000  0.5569700000000 1.0
C      1  0.4861640000000  0.4243890000000  0.4434390000000 1.0
C      1  0.4472120000000  0.5356960000000  0.5150940000000 1.0
C      1  0.5371540000000  0.5122070000000  0.4445170000000 1.0
C      1  0.5178910000000  0.4468900000000  0.5343800000000 1.0
C      1  0.5559300000000  0.5331100000000  0.4843970000000 1.0
C      1  0.5534850000000  0.4653300000000  0.5187430000000 1.0
C      1  0.4468870000000  0.4648430000000  0.4828050000000 1.0
C      1  0.4648330000000  0.5172300000000  0.5512280000000 1.0
C      1  0.4647310000000  0.4824360000000  0.4469820000000 1.0
C      1  0.5353070000000  0.4818420000000  0.5529910000000 1.0
C      1  0.4832560000000  0.4469440000000  0.4645000000000 1.0
C      1  0.4840700000000  0.5544800000000  0.5366170000000 1.0
C      1  0.5173250000000  0.5500590000000  0.4656690000000 1.0
C      1  0.4465150000000  0.4653280000000  0.5187410000000 1.0
C      1  0.5352710000000  0.4824370000000  0.4469830000000 1.0
C      1  0.5159270000000  0.5544800000000  0.5366180000000 1.0
C      1  0.5531150000000  0.4648440000000  0.4828070000000 1.0
C      1  0.5527870000000  0.5356980000000  0.5150960000000 1.0
C      1  0.4440700000000  0.5331080000000  0.4843960000000 1.0
C      1  0.4646920000000  0.4818410000000  0.5529900000000 1.0
C      1  0.4628470000000  0.5122060000000  0.4445160000000 1.0
C      1  0.5351650000000  0.5172320000000  0.5512290000000 1.0
C      1  0.4826750000000  0.5500580000000  0.4656680000000 1.0
C      1  0.4821100000000  0.4468900000000  0.5343800000000 1.0
C      1  0.5167460000000  0.4469450000000  0.4645010000000 1.0
C      1  0.4814420000000  0.4938990000000  0.5131030000000 1.0
C      1  0.4921340000000  0.5217670000000  0.4778420000000 1.0
C      1  0.5137140000000  0.4804710000000  0.4916050000000 1.0
C      1  0.5187400000000  0.4971560000000  0.4839050000000 1.0
C      1  0.5187260000000  0.5089160000000  0.5118290000000 1.0
C      1  0.4799230000000  0.5123250000000  0.4809260000000 1.0
C      1  0.5078050000000  0.5187860000000  0.5148440000000 1.0
C      1  0.5078350000000  0.4881410000000  0.4809790000000 1.0
C      1  0.4926050000000  0.4864740000000  0.5184930000000 1.0
C      1  0.4855820000000  0.4814760000000  0.5061470000000 1.0
C      1  0.4832670000000  0.5242930000000  0.4891280000000 1.0
C      1  0.5183170000000  0.5216210000000  0.5039270000000 1.0
C      1  0.4812730000000  0.5089150000000  0.5118280000000 1.0
C      1  0.4921660000000  0.4881410000000  0.4809790000000 1.0
C      1  0.5167330000000  0.5242940000000  0.4891290000000 1.0
C      1  0.5200770000000  0.5123260000000  0.4809260000000 1.0
C      1  0.5185570000000  0.4938990000000  0.5131040000000 1.0
C      1  0.4812600000000  0.4971560000000  0.4839040000000 1.0
C      1  0.5073950000000  0.4864740000000  0.5184930000000 1.0
C      1  0.5078660000000  0.5217670000000  0.4778420000000 1.0
C      1  0.4921940000000  0.5187860000000  0.5148430000000 1.0
C      1  0.4816820000000  0.5216200000000  0.5039260000000 1.0
C      1  0.4862870000000  0.4804710000000  0.4916050000000 1.0
C      1  0.5144190000000  0.4814770000000  0.5061480000000 1.0
C      1  0.5274000000000  0.4498820000000  0.5072490000000 1.0
C      1  0.4497490000000  0.5087050000000  0.5268470000000 1.0
C      1  0.5136490000000  0.5251830000000  0.4517420000000 1.0
C      1  0.4725560000000  0.4495080000000  0.4918890000000 1.0
C      1  0.4738130000000  0.5517220000000  0.5106580000000 1.0
C      1  0.5260980000000  0.5495320000000  0.4960610000000 1.0
C      1  0.5538040000000  0.5060440000000  0.4719400000000 1.0
C      1  0.5499870000000  0.4932930000000  0.5274430000000 1.0
C      1  0.4483640000000  0.4911440000000  0.4731650000000 1.0
C      1  0.4923980000000  0.5264060000000  0.5490940000000 1.0
C      1  0.4923340000000  0.4727020000000  0.4498180000000 1.0
C      1  0.5076460000000  0.4716940000000  0.5499340000000 1.0
C      1  0.5261850000000  0.5517230000000  0.5106580000000 1.0
C      1  0.4500130000000  0.4932910000000  0.5274420000000 1.0
C      1  0.5076690000000  0.4727020000000  0.4498190000000 1.0
C      1  0.4739000000000  0.5495320000000  0.4960610000000 1.0
C      1  0.4726010000000  0.4498810000000  0.5072480000000 1.0
C      1  0.5274460000000  0.4495090000000  0.4918890000000 1.0
C      1  0.5516370000000  0.4911450000000  0.4731660000000 1.0
C      1  0.5502500000000  0.5087060000000  0.5268480000000 1.0
C      1  0.4461970000000  0.5060420000000  0.4719380000000 1.0
C      1  0.4923530000000  0.4716940000000  0.5499340000000 1.0
C      1  0.4863520000000  0.5251820000000  0.4517420000000 1.0
C      1  0.5076000000000  0.5264060000000  0.5490950000000 1.0
C      1  0.4451480000000  0.4396920000000  0.4684850000000 1.0
C      1  0.4394870000000  0.4684570000000  0.4455020000000 1.0
C      1  0.4681960000000  0.4452080000000  0.4397740000000 1.0
C      1  0.5549680000000  0.4392790000000  0.5323260000000 1.0
C      1  0.5549300000000  0.5585820000000  0.4690800000000 1.0
C      1  0.4453170000000  0.5599050000000  0.5328640000000 1.0
C      1  0.5605940000000  0.4677140000000  0.5560170000000 1.0
C      1  0.5616960000000  0.5319880000000  0.4445400000000 1.0
C      1  0.4394830000000  0.5312540000000  0.5548900000000 1.0
C      1  0.5318460000000  0.4446130000000  0.5613350000000 1.0
C      1  0.5322500000000  0.5542400000000  0.4400590000000 1.0
C      1  0.4687960000000  0.5548530000000  0.5609940000000 1.0
C      1  0.4450690000000  0.5585800000000  0.4690780000000 1.0
C      1  0.4383050000000  0.5319860000000  0.4445380000000 1.0
C      1  0.4677500000000  0.5542390000000  0.4400580000000 1.0
C      1  0.5546800000000  0.5599060000000  0.5328650000000 1.0
C      1  0.5548550000000  0.4396940000000  0.4684870000000 1.0
C      1  0.4450340000000  0.4392780000000  0.5323250000000 1.0
C      1  0.5605140000000  0.5312560000000  0.5548920000000 1.0
C      1  0.5605160000000  0.4684590000000  0.4455040000000 1.0
C      1  0.4394060000000  0.4677120000000  0.5560150000000 1.0
C      1  0.5312000000000  0.5548540000000  0.5609950000000 1.0
C      1  0.5318080000000  0.4452090000000  0.4397750000000 1.0
C      1  0.4681540000000  0.4446120000000  0.5613340000000 1.0
C      1  0.5648120000000  0.4821220000000  0.4944260000000 1.0
C      1  0.4830320000000  0.4921390000000  0.5637250000000 1.0
C      1  0.4930800000000  0.5624940000000  0.4840860000000 1.0
C      1  0.4349610000000  0.4830050000000  0.5082400000000 1.0
C      1  0.4325600000000  0.5155220000000  0.4927710000000 1.0
C      1  0.5650420000000  0.5166790000000  0.5065770000000 1.0
C      1  0.5166870000000  0.4930350000000  0.4354920000000 1.0
C      1  0.5171520000000  0.5059580000000  0.5625050000000 1.0
C      1  0.4838060000000  0.5071760000000  0.4349290000000 1.0
C      1  0.5069320000000  0.5667640000000  0.5186470000000 1.0
C      1  0.5069360000000  0.4355890000000  0.4829110000000 1.0
C      1  0.4930150000000  0.4355330000000  0.5167640000000 1.0
C      1  0.5674400000000  0.5155240000000  0.4927730000000 1.0
C      1  0.4828460000000  0.5059570000000  0.5625040000000 1.0
C      1  0.4930670000000  0.4355880000000  0.4829110000000 1.0
C      1  0.4349580000000  0.5166770000000  0.5065750000000 1.0
C      1  0.4351890000000  0.4821200000000  0.4944240000000 1.0
C      1  0.5650400000000  0.4830070000000  0.5082420000000 1.0
C      1  0.5161950000000  0.5071770000000  0.4349290000000 1.0
C      1  0.5169670000000  0.4921400000000  0.5637250000000 1.0
C      1  0.4833160000000  0.4930350000000  0.4354910000000 1.0
C      1  0.5069870000000  0.4355330000000  0.5167640000000 1.0
C      1  0.5069180000000  0.5624950000000  0.4840860000000 1.0
C      1  0.4930650000000  0.5667640000000  0.5186470000000 1.0
C      1  0.5148440000000  0.5210700000000  0.5888560000000 1.0
C      1  0.5158180000000  0.5953140000000  0.5192450000000 1.0
C      1  0.5944510000000  0.5171950000000  0.5162280000000 1.0
C      1  0.4821650000000  0.5161560000000  0.4053150000000 1.0
C      1  0.4836290000000  0.4866500000000  0.5928420000000 1.0
C      1  0.5175930000000  0.4848550000000  0.4060290000000 1.0
C      1  0.4842160000000  0.5914790000000  0.4846780000000 1.0
C      1  0.4842950000000  0.4060400000000  0.5176430000000 1.0
C      1  0.5157030000000  0.4060280000000  0.4825750000000 1.0
C      1  0.4038720000000  0.5173550000000  0.4846950000000 1.0
C      1  0.4058050000000  0.4823710000000  0.5164210000000 1.0
C      1  0.5947110000000  0.4822350000000  0.4848310000000 1.0
C      1  0.5163690000000  0.4866500000000  0.5928430000000 1.0
C      1  0.5157080000000  0.4060400000000  0.5176440000000 1.0
C      1  0.5941960000000  0.4823750000000  0.5164230000000 1.0
C      1  0.4824100000000  0.4848550000000  0.4060280000000 1.0
C      1  0.4851520000000  0.5210690000000  0.5888550000000 1.0
C      1  0.5178380000000  0.5161570000000  0.4053160000000 1.0
C      1  0.4843010000000  0.4060280000000  0.4825740000000 1.0
C      1  0.4841780000000  0.5953130000000  0.5192450000000 1.0
C      1  0.5157820000000  0.5914790000000  0.4846780000000 1.0
C      1  0.4052900000000  0.4822320000000  0.4848280000000 1.0
C      1  0.4055480000000  0.5171920000000  0.5162250000000 1.0
C      1  0.5961280000000  0.5173580000000  0.4846980000000 1.0
C      1  0.5382200000000  0.5433920000000  0.5646900000000 1.0
C      1  0.5437660000000  0.5656930000000  0.5399700000000 1.0
C      1  0.5655000000000  0.5378130000000  0.5435720000000 1.0
C      1  0.4606260000000  0.5434860000000  0.4342530000000 1.0
C      1  0.4613710000000  0.4560510000000  0.5664480000000 1.0
C      1  0.5386140000000  0.4565990000000  0.4348310000000 1.0
C      1  0.4565200000000  0.5634030000000  0.4625130000000 1.0
C      1  0.4564060000000  0.4342380000000  0.5391700000000 1.0
C      1  0.5435600000000  0.4346100000000  0.4616080000000 1.0
C      1  0.4330240000000  0.5385680000000  0.4559720000000 1.0
C      1  0.4342560000000  0.4607880000000  0.5446290000000 1.0
C      1  0.5654950000000  0.4616630000000  0.4568950000000 1.0
C      1  0.5386290000000  0.4560520000000  0.5664490000000 1.0
C      1  0.5435950000000  0.4342400000000  0.5391720000000 1.0
C      1  0.5657440000000  0.4607910000000  0.5446310000000 1.0
C      1  0.4613900000000  0.4565970000000  0.4348300000000 1.0
C      1  0.4617760000000  0.5433910000000  0.5646880000000 1.0
C      1  0.5393750000000  0.5434870000000  0.4342540000000 1.0
C      1  0.4564430000000  0.4346090000000  0.4616070000000 1.0
C      1  0.4562310000000  0.5656910000000  0.5399690000000 1.0
C      1  0.5434790000000  0.5634040000000  0.4625140000000 1.0
C      1  0.4345080000000  0.4616610000000  0.4568930000000 1.0
C      1  0.4344970000000  0.5378110000000  0.5435700000000 1.0
C      1  0.5669760000000  0.5385700000000  0.4559740000000 1.0
C      1  0.4187810000000  0.4929120000000  0.5388220000000 1.0
C      1  0.4937360000000  0.5373740000000  0.4200860000000 1.0
C      1  0.5378730000000  0.4193350000000  0.4940810000000 1.0
C      1  0.5824060000000  0.4937410000000  0.4611480000000 1.0
C      1  0.5807950000000  0.5054040000000  0.5381240000000 1.0
C      1  0.4171110000000  0.5062270000000  0.4603420000000 1.0
C      1  0.5073570000000  0.5321360000000  0.5818130000000 1.0
C      1  0.5062480000000  0.4615900000000  0.4189750000000 1.0
C      1  0.4937520000000  0.4616070000000  0.5817660000000 1.0
C      1  0.4621090000000  0.4192160000000  0.5065870000000 1.0
C      1  0.4614160000000  0.5799290000000  0.4946640000000 1.0
C      1  0.5392270000000  0.5812040000000  0.5071410000000 1.0
C      1  0.4192040000000  0.5054020000000  0.5381220000000 1.0
C      1  0.4937560000000  0.4615900000000  0.4189740000000 1.0
C      1  0.5385820000000  0.5799310000000  0.4946650000000 1.0
C      1  0.5828900000000  0.5062300000000  0.4603440000000 1.0
C      1  0.5812180000000  0.4929140000000  0.5388240000000 1.0
C      1  0.4175950000000  0.4937380000000  0.4611460000000 1.0
C      1  0.5062470000000  0.4616070000000  0.5817660000000 1.0
C      1  0.5062650000000  0.5373740000000  0.4200860000000 1.0
C      1  0.4926400000000  0.5321360000000  0.5818130000000 1.0
C      1  0.4607710000000  0.5812020000000  0.5071390000000 1.0
C      1  0.4621300000000  0.4193330000000  0.4940790000000 1.0
C      1  0.5378930000000  0.4192170000000  0.5065880000000 1.0
C      1  0.4062350000000  0.4594490000000  0.4933150000000 1.0
C      1  0.4592800000000  0.4926480000000  0.4062140000000 1.0
C      1  0.4926970000000  0.4061320000000  0.4595290000000 1.0
C      1  0.5937570000000  0.4594060000000  0.5079030000000 1.0
C      1  0.5948610000000  0.5403660000000  0.4930960000000 1.0
C      1  0.4058890000000  0.5401650000000  0.5077160000000 1.0
C      1  0.5386710000000  0.4938500000000  0.5933840000000 1.0
C      1  0.5409850000000  0.5072450000000  0.4056600000000 1.0
C      1  0.4621670000000  0.5084440000000  0.5926280000000 1.0
C      1  0.5072960000000  0.4059480000000  0.5406880000000 1.0
C      1  0.5072890000000  0.5917630000000  0.4618250000000 1.0
C      1  0.4926820000000  0.5942020000000  0.5423130000000 1.0
C      1  0.4051380000000  0.5403620000000  0.4930930000000 1.0
C      1  0.4590180000000  0.5072440000000  0.4056590000000 1.0
C      1  0.4927100000000  0.5917630000000  0.4618250000000 1.0
C      1  0.5941090000000  0.5401690000000  0.5077190000000 1.0
C      1  0.5937670000000  0.4594520000000  0.4933180000000 1.0
C      1  0.4062440000000  0.4594030000000  0.5079000000000 1.0
C      1  0.5378300000000  0.5084450000000  0.5926290000000 1.0
C      1  0.5407230000000  0.4926490000000  0.4062150000000 1.0
C      1  0.4613270000000  0.4938490000000  0.5933830000000 1.0
C      1  0.5073130000000  0.5942030000000  0.5423130000000 1.0
C      1  0.5073070000000  0.4061320000000  0.4595290000000 1.0
C      1  0.4927060000000  0.4059480000000  0.5406880000000 1.0
END
