TITL C-855863-9781-140 133.335001790883 1000000 -2959.34806404791 0 0 420 (C1) n - 1
REM
REM in /scratch/bkarasulu/Larger-Clusters
REM
REM
REM
REM
REM
REM ./C.cell (28d0ae7d613b82ecca3ae8fabf5dfced)
REM
REM compiler GCC version 9.2.1 20190827 (Red Hat 9.2.1-1)
REM options -cpp -mtune=generic -march=x86-64 -g -O0 -fpre-include=/usr/include/finclude/math-vector-fortran.h
REM seed 985887332 -1312817499 -1722295331 -636438764 -1385159440 -640388617 -467563178 -333541605 -1607875406 -1486187263 341189482 1908282846 -975091180 1129067915 1356594194 -1883548143 -254889743 30205313 -712419442 170423813 -752896773 522159556 -2114267834 2118385932 -1710390325 2028225318 -1760161113 861543734 -2017765262 -1799667689 608094694 1588720480 1663591423
REM
CELL 1.54180  100.00000  100.00000  100.00000   90.00000   90.00000   90.00000
LATT -1
SFAC C  
C      1  0.5587360000000  0.4513960000000  0.5383360000000 1.0
C      1  0.5379200000000  0.5577890000000  0.4522000000000 1.0
C      1  0.4513630000000  0.5396810000000  0.5590750000000 1.0
C      1  0.4419460000000  0.4519170000000  0.4615800000000 1.0
C      1  0.5578200000000  0.5477830000000  0.4620800000000 1.0
C      1  0.4408190000000  0.5495350000000  0.5394920000000 1.0
C      1  0.4611940000000  0.5593830000000  0.5487010000000 1.0
C      1  0.5385200000000  0.4414020000000  0.5476500000000 1.0
C      1  0.4611110000000  0.4411060000000  0.4512600000000 1.0
C      1  0.5478170000000  0.5379080000000  0.4421750000000 1.0
C      1  0.4517720000000  0.4613360000000  0.4413290000000 1.0
C      1  0.5485300000000  0.4607490000000  0.5584150000000 1.0
C      1  0.5385590000000  0.4513520000000  0.5580890000000 1.0
C      1  0.4511740000000  0.5595590000000  0.5393180000000 1.0
C      1  0.5579560000000  0.5380490000000  0.4524330000000 1.0
C      1  0.4611060000000  0.4512950000000  0.4410620000000 1.0
C      1  0.4613090000000  0.5491350000000  0.5588480000000 1.0
C      1  0.5380670000000  0.5475390000000  0.4420550000000 1.0
C      1  0.5475580000000  0.5579170000000  0.4619430000000 1.0
C      1  0.5483050000000  0.4414400000000  0.5380280000000 1.0
C      1  0.4517870000000  0.4413800000000  0.4613090000000 1.0
C      1  0.4409020000000  0.5398230000000  0.5491640000000 1.0
C      1  0.4419370000000  0.4616120000000  0.4518720000000 1.0
C      1  0.5588340000000  0.4607740000000  0.5483370000000 1.0
C      1  0.5105080000000  0.5195690000000  0.4265370000000 1.0
C      1  0.4258080000000  0.5121040000000  0.5214910000000 1.0
C      1  0.5203210000000  0.4267480000000  0.5099200000000 1.0
C      1  0.4890650000000  0.5208240000000  0.5733270000000 1.0
C      1  0.5109620000000  0.4794490000000  0.5731540000000 1.0
C      1  0.4890480000000  0.4787310000000  0.4257440000000 1.0
C      1  0.5734750000000  0.5104450000000  0.4803560000000 1.0
C      1  0.4276330000000  0.4898140000000  0.4801300000000 1.0
C      1  0.5741980000000  0.4887950000000  0.5210300000000 1.0
C      1  0.4797320000000  0.4257050000000  0.4885620000000 1.0
C      1  0.5195900000000  0.5734420000000  0.4895440000000 1.0
C      1  0.4787510000000  0.5743620000000  0.5111710000000 1.0
C      1  0.4257670000000  0.5217390000000  0.5118560000000 1.0
C      1  0.5201010000000  0.5099630000000  0.4268700000000 1.0
C      1  0.5107230000000  0.4264500000000  0.5195240000000 1.0
C      1  0.5731030000000  0.5200170000000  0.4899830000000 1.0
C      1  0.5743620000000  0.4794250000000  0.5111660000000 1.0
C      1  0.4276520000000  0.4802190000000  0.4897430000000 1.0
C      1  0.4791920000000  0.5114660000000  0.5735250000000 1.0
C      1  0.4796770000000  0.4885950000000  0.4256620000000 1.0
C      1  0.5208500000000  0.4887910000000  0.5734030000000 1.0
C      1  0.4890930000000  0.4257720000000  0.4786870000000 1.0
C      1  0.4886110000000  0.5744780000000  0.5205450000000 1.0
C      1  0.5099730000000  0.5730910000000  0.4799600000000 1.0
C      1  0.4761160000000  0.5146370000000  0.5883010000000 1.0
C      1  0.5890570000000  0.4759150000000  0.5143220000000 1.0
C      1  0.5130490000000  0.5876960000000  0.4759690000000 1.0
C      1  0.5240590000000  0.5130360000000  0.4122550000000 1.0
C      1  0.4760910000000  0.4855000000000  0.4109720000000 1.0
C      1  0.5239700000000  0.4854790000000  0.5881350000000 1.0
C      1  0.4129650000000  0.4766110000000  0.4865780000000 1.0
C      1  0.5877200000000  0.5240030000000  0.4869520000000 1.0
C      1  0.4109610000000  0.5248520000000  0.5146540000000 1.0
C      1  0.4855670000000  0.5892130000000  0.5240090000000 1.0
C      1  0.5142730000000  0.4117870000000  0.5230410000000 1.0
C      1  0.4859540000000  0.4110580000000  0.4752990000000 1.0
C      1  0.5880940000000  0.5141340000000  0.4768280000000 1.0
C      1  0.5136780000000  0.4757460000000  0.5878520000000 1.0
C      1  0.4754100000000  0.5891200000000  0.5141650000000 1.0
C      1  0.4110090000000  0.5148410000000  0.5246830000000 1.0
C      1  0.4129460000000  0.4866130000000  0.4765530000000 1.0
C      1  0.5889150000000  0.4857480000000  0.5244920000000 1.0
C      1  0.4859450000000  0.4753490000000  0.4110210000000 1.0
C      1  0.4864020000000  0.5243730000000  0.5880750000000 1.0
C      1  0.5141620000000  0.5231330000000  0.4119180000000 1.0
C      1  0.5231580000000  0.5880500000000  0.4858540000000 1.0
C      1  0.5241610000000  0.4120850000000  0.5129370000000 1.0
C      1  0.4761130000000  0.4110250000000  0.4854640000000 1.0
C      1  0.4983230000000  0.5230300000000  0.5964870000000 1.0
C      1  0.5974430000000  0.4976480000000  0.5234730000000 1.0
C      1  0.5222390000000  0.5971790000000  0.4972100000000 1.0
C      1  0.5027870000000  0.5221910000000  0.4028150000000 1.0
C      1  0.4978140000000  0.4764490000000  0.4024560000000 1.0
C      1  0.5017820000000  0.4770160000000  0.5963130000000 1.0
C      1  0.4041220000000  0.4982450000000  0.4774620000000 1.0
C      1  0.5972210000000  0.5027770000000  0.4777530000000 1.0
C      1  0.4027120000000  0.5028050000000  0.5233080000000 1.0
C      1  0.4765070000000  0.5976030000000  0.5022440000000 1.0
C      1  0.5232280000000  0.4033820000000  0.5011960000000 1.0
C      1  0.4773860000000  0.4023170000000  0.4971370000000 1.0
C      1  0.5964350000000  0.5231150000000  0.4986910000000 1.0
C      1  0.5229210000000  0.4972290000000  0.5968360000000 1.0
C      1  0.4972670000000  0.5978700000000  0.5226630000000 1.0
C      1  0.4026280000000  0.5234000000000  0.5026500000000 1.0
C      1  0.4041680000000  0.4775380000000  0.4982290000000 1.0
C      1  0.5977930000000  0.4772700000000  0.5026780000000 1.0
C      1  0.4773680000000  0.4971760000000  0.4022690000000 1.0
C      1  0.4771850000000  0.5028150000000  0.5968950000000 1.0
C      1  0.5231950000000  0.5013180000000  0.4035090000000 1.0
C      1  0.5013330000000  0.5964450000000  0.4768280000000 1.0
C      1  0.5028480000000  0.4027530000000  0.5221030000000 1.0
C      1  0.4978050000000  0.4024650000000  0.4763720000000 1.0
C      1  0.5731210000000  0.5485660000000  0.4985130000000 1.0
C      1  0.4976490000000  0.5749960000000  0.5488480000000 1.0
C      1  0.5492840000000  0.4963320000000  0.5750600000000 1.0
C      1  0.4243770000000  0.5499880000000  0.5036630000000 1.0
C      1  0.5748670000000  0.4511490000000  0.5021160000000 1.0
C      1  0.4270340000000  0.4516800000000  0.4981810000000 1.0
C      1  0.5014920000000  0.5731050000000  0.4514030000000 1.0
C      1  0.4967250000000  0.4244750000000  0.4501980000000 1.0
C      1  0.5022780000000  0.4256820000000  0.5480450000000 1.0
C      1  0.4513890000000  0.4976140000000  0.4253630000000 1.0
C      1  0.5486660000000  0.5015040000000  0.4268020000000 1.0
C      1  0.4507430000000  0.5038590000000  0.5751920000000 1.0
C      1  0.4981010000000  0.5491370000000  0.5736840000000 1.0
C      1  0.5480880000000  0.5741700000000  0.4979480000000 1.0
C      1  0.5752860000000  0.4964430000000  0.5495340000000 1.0
C      1  0.5020610000000  0.5480620000000  0.4258060000000 1.0
C      1  0.5019270000000  0.4511570000000  0.5732430000000 1.0
C      1  0.4967210000000  0.4502440000000  0.4244410000000 1.0
C      1  0.4502460000000  0.5756750000000  0.5034730000000 1.0
C      1  0.4514550000000  0.4254610000000  0.4976080000000 1.0
C      1  0.5489000000000  0.4264600000000  0.5014360000000 1.0
C      1  0.4269610000000  0.4981890000000  0.4515800000000 1.0
C      1  0.4246320000000  0.5039340000000  0.5497540000000 1.0
C      1  0.5742650000000  0.5020700000000  0.4518470000000 1.0
C      1  0.4680370000000  0.4222980000000  0.5525200000000 1.0
C      1  0.5525950000000  0.4665650000000  0.4257950000000 1.0
C      1  0.4247580000000  0.5529020000000  0.4693900000000 1.0
C      1  0.5309670000000  0.4246200000000  0.4468130000000 1.0
C      1  0.4665500000000  0.5740340000000  0.4475670000000 1.0
C      1  0.5319770000000  0.5779760000000  0.5529000000000 1.0
C      1  0.4474020000000  0.4696350000000  0.5749810000000 1.0
C      1  0.5526690000000  0.5305640000000  0.5751370000000 1.0
C      1  0.4471540000000  0.5319000000000  0.4221620000000 1.0
C      1  0.5740130000000  0.5523860000000  0.5334610000000 1.0
C      1  0.4260990000000  0.4479900000000  0.5331360000000 1.0
C      1  0.5781240000000  0.4470860000000  0.4678050000000 1.0
C      1  0.5526590000000  0.4256860000000  0.4664660000000 1.0
C      1  0.4250770000000  0.4696790000000  0.5527980000000 1.0
C      1  0.4678350000000  0.5525560000000  0.4221590000000 1.0
C      1  0.4473020000000  0.4223310000000  0.5319120000000 1.0
C      1  0.4469090000000  0.5752380000000  0.4692440000000 1.0
C      1  0.5525990000000  0.5778400000000  0.5321720000000 1.0
C      1  0.5780140000000  0.4678680000000  0.4472470000000 1.0
C      1  0.5750510000000  0.5306600000000  0.5530410000000 1.0
C      1  0.4259150000000  0.5331380000000  0.4477880000000 1.0
C      1  0.5331400000000  0.5523890000000  0.5741890000000 1.0
C      1  0.5309610000000  0.4468760000000  0.4246140000000 1.0
C      1  0.4669180000000  0.4478240000000  0.5738980000000 1.0
C      1  0.5389420000000  0.4812910000000  0.4126940000000 1.0
C      1  0.4115340000000  0.5391590000000  0.4826040000000 1.0
C      1  0.4826480000000  0.4108470000000  0.5380640000000 1.0
C      1  0.4613150000000  0.4827600000000  0.5881620000000 1.0
C      1  0.5387630000000  0.5173490000000  0.5882200000000 1.0
C      1  0.4614620000000  0.5172800000000  0.4106260000000 1.0
C      1  0.5871710000000  0.5387880000000  0.5187380000000 1.0
C      1  0.4131180000000  0.4617520000000  0.5183660000000 1.0
C      1  0.5895650000000  0.4613910000000  0.4825010000000 1.0
C      1  0.5178200000000  0.4113580000000  0.4605920000000 1.0
C      1  0.4812810000000  0.5872060000000  0.4611440000000 1.0
C      1  0.5173730000000  0.5895280000000  0.5385810000000 1.0
C      1  0.4117470000000  0.4828270000000  0.5390850000000 1.0
C      1  0.4825280000000  0.5381170000000  0.4108120000000 1.0
C      1  0.5389920000000  0.4125560000000  0.4811710000000 1.0
C      1  0.5893040000000  0.4825460000000  0.4617470000000 1.0
C      1  0.5884090000000  0.5175860000000  0.5392750000000 1.0
C      1  0.4129920000000  0.5183640000000  0.4616050000000 1.0
C      1  0.5183650000000  0.5387660000000  0.5872810000000 1.0
C      1  0.5178200000000  0.4606700000000  0.4113630000000 1.0
C      1  0.4817150000000  0.4613580000000  0.5870400000000 1.0
C      1  0.4615430000000  0.4107300000000  0.5172730000000 1.0
C      1  0.4606960000000  0.5885970000000  0.4822970000000 1.0
C      1  0.5381730000000  0.5892010000000  0.5174740000000 1.0
C      1  0.4310790000000  0.4403810000000  0.5220020000000 1.0
C      1  0.5198600000000  0.4289870000000  0.4390870000000 1.0
C      1  0.4405990000000  0.5214950000000  0.4292680000000 1.0
C      1  0.5710700000000  0.4404320000000  0.4781840000000 1.0
C      1  0.4290530000000  0.5607740000000  0.4804250000000 1.0
C      1  0.5689350000000  0.5598840000000  0.5223050000000 1.0
C      1  0.4784680000000  0.4293570000000  0.5590780000000 1.0
C      1  0.5215530000000  0.5709860000000  0.5595510000000 1.0
C      1  0.4777050000000  0.5689260000000  0.4400820000000 1.0
C      1  0.5604200000000  0.5194820000000  0.5707540000000 1.0
C      1  0.4396460000000  0.4807330000000  0.5706680000000 1.0
C      1  0.5600500000000  0.4777310000000  0.4309210000000 1.0
C      1  0.5198580000000  0.4391350000000  0.4289540000000 1.0
C      1  0.4407290000000  0.4294220000000  0.5215060000000 1.0
C      1  0.4309400000000  0.5219940000000  0.4402200000000 1.0
C      1  0.4780160000000  0.4401790000000  0.5688830000000 1.0
C      1  0.4782260000000  0.5591100000000  0.4292820000000 1.0
C      1  0.5220270000000  0.5600920000000  0.5692790000000 1.0
C      1  0.5602010000000  0.4306880000000  0.4776370000000 1.0
C      1  0.5591350000000  0.5706980000000  0.5217810000000 1.0
C      1  0.4391750000000  0.5709430000000  0.4803650000000 1.0
C      1  0.5706420000000  0.5195260000000  0.5606920000000 1.0
C      1  0.5708550000000  0.4782580000000  0.4407310000000 1.0
C      1  0.4294380000000  0.4807450000000  0.5605830000000 1.0
C      1  0.6023080000000  0.4900490000000  0.5003710000000 1.0
C      1  0.4991470000000  0.6017590000000  0.4893030000000 1.0
C      1  0.4898280000000  0.5001430000000  0.6013570000000 1.0
C      1  0.3990070000000  0.4900630000000  0.5004090000000 1.0
C      1  0.6017300000000  0.5106320000000  0.5008760000000 1.0
C      1  0.3984490000000  0.5106000000000  0.5001310000000 1.0
C      1  0.4996160000000  0.6023660000000  0.5098860000000 1.0
C      1  0.5004320000000  0.3978980000000  0.5095030000000 1.0
C      1  0.5004170000000  0.3978700000000  0.4889920000000 1.0
C      1  0.5107090000000  0.4991070000000  0.3982270000000 1.0
C      1  0.4901220000000  0.4995420000000  0.3977080000000 1.0
C      1  0.5102830000000  0.4998690000000  0.6013330000000 1.0
C      1  0.4996710000000  0.4896960000000  0.6011990000000 1.0
C      1  0.4891340000000  0.6021580000000  0.4995970000000 1.0
C      1  0.6020720000000  0.5003670000000  0.4903580000000 1.0
C      1  0.5004260000000  0.4890770000000  0.3978830000000 1.0
C      1  0.5004400000000  0.5103170000000  0.6012800000000 1.0
C      1  0.5004060000000  0.5095900000000  0.3979430000000 1.0
C      1  0.5096460000000  0.6020710000000  0.4995880000000 1.0
C      1  0.5107180000000  0.3981560000000  0.4990030000000 1.0
C      1  0.4901300000000  0.3977180000000  0.4994740000000 1.0
C      1  0.3984840000000  0.5002320000000  0.5105310000000 1.0
C      1  0.3989770000000  0.5004470000000  0.4899910000000 1.0
C      1  0.6020660000000  0.5003160000000  0.5108720000000 1.0
C      1  0.4049580000000  0.5334370000000  0.4931110000000 1.0
C      1  0.4934310000000  0.4047860000000  0.5322740000000 1.0
C      1  0.5332190000000  0.4918070000000  0.4060290000000 1.0
C      1  0.5938750000000  0.5331060000000  0.5082260000000 1.0
C      1  0.4065390000000  0.4675000000000  0.5077940000000 1.0
C      1  0.5956950000000  0.4671360000000  0.4932450000000 1.0
C      1  0.5073130000000  0.4047950000000  0.4663280000000 1.0
C      1  0.4918040000000  0.5938980000000  0.4668250000000 1.0
C      1  0.5066730000000  0.5957220000000  0.5328130000000 1.0
C      1  0.4670990000000  0.4932980000000  0.5946600000000 1.0
C      1  0.5330020000000  0.5067630000000  0.5946580000000 1.0
C      1  0.4672150000000  0.5065680000000  0.4044470000000 1.0
C      1  0.4933490000000  0.5323480000000  0.4048070000000 1.0
C      1  0.5332490000000  0.4058760000000  0.4916700000000 1.0
C      1  0.4051220000000  0.4933030000000  0.5333610000000 1.0
C      1  0.5078780000000  0.5330440000000  0.5939930000000 1.0
C      1  0.5073220000000  0.4664090000000  0.4047930000000 1.0
C      1  0.4922240000000  0.4670210000000  0.5937650000000 1.0
C      1  0.4672550000000  0.4045240000000  0.5065520000000 1.0
C      1  0.4664560000000  0.5952190000000  0.4927560000000 1.0
C      1  0.5324050000000  0.5951970000000  0.5066440000000 1.0
C      1  0.5952690000000  0.4933670000000  0.4675610000000 1.0
C      1  0.5950260000000  0.5071170000000  0.5335310000000 1.0
C      1  0.4064520000000  0.5077880000000  0.4673930000000 1.0
C      1  0.4798390000000  0.5320330000000  0.5765220000000 1.0
C      1  0.5772960000000  0.4789650000000  0.5317860000000 1.0
C      1  0.5305690000000  0.5761690000000  0.4798700000000 1.0
C      1  0.5201600000000  0.5305590000000  0.4237810000000 1.0
C      1  0.4792190000000  0.4679830000000  0.4226310000000 1.0
C      1  0.5202010000000  0.4682000000000  0.5762040000000 1.0
C      1  0.4246780000000  0.4802420000000  0.4691380000000 1.0
C      1  0.5762350000000  0.5201320000000  0.4693960000000 1.0
C      1  0.4223950000000  0.5216860000000  0.5323720000000 1.0
C      1  0.4680110000000  0.5775830000000  0.5209690000000 1.0
C      1  0.5314060000000  0.4238890000000  0.5194040000000 1.0
C      1  0.4685260000000  0.4227500000000  0.4792320000000 1.0
C      1  0.5758440000000  0.5311480000000  0.4805090000000 1.0
C      1  0.5314900000000  0.4788600000000  0.5765860000000 1.0
C      1  0.4792930000000  0.5775880000000  0.5317120000000 1.0
C      1  0.4223390000000  0.5326100000000  0.5214400000000 1.0
C      1  0.4246970000000  0.4692010000000  0.4802030000000 1.0
C      1  0.5773610000000  0.4682430000000  0.5205050000000 1.0
C      1  0.4684870000000  0.4792540000000  0.4226770000000 1.0
C      1  0.4685510000000  0.5213450000000  0.5768410000000 1.0
C      1  0.5312050000000  0.5194730000000  0.4241350000000 1.0
C      1  0.5194740000000  0.5757980000000  0.4688410000000 1.0
C      1  0.5203510000000  0.4235810000000  0.5305040000000 1.0
C      1  0.4792420000000  0.4226880000000  0.4679500000000 1.0
C      1  0.5762640000000  0.4440950000000  0.4543620000000 1.0
C      1  0.4530820000000  0.5693060000000  0.4456220000000 1.0
C      1  0.4462820000000  0.4580740000000  0.5670680000000 1.0
C      1  0.4308120000000  0.4460080000000  0.5466090000000 1.0
C      1  0.5692830000000  0.5543370000000  0.5469290000000 1.0
C      1  0.4326810000000  0.5539080000000  0.4578290000000 1.0
C      1  0.5454000000000  0.5760270000000  0.5559150000000 1.0
C      1  0.4546170000000  0.4242260000000  0.5556060000000 1.0
C      1  0.5425190000000  0.4325530000000  0.4457830000000 1.0
C      1  0.5545990000000  0.4530820000000  0.4304630000000 1.0
C      1  0.4441060000000  0.5453260000000  0.4240320000000 1.0
C      1  0.5537820000000  0.5421750000000  0.5672930000000 1.0
C      1  0.4534420000000  0.4459320000000  0.5691820000000 1.0
C      1  0.4458710000000  0.5672380000000  0.4577420000000 1.0
C      1  0.5762300000000  0.4544360000000  0.4441220000000 1.0
C      1  0.5425070000000  0.4458280000000  0.4325510000000 1.0
C      1  0.5466130000000  0.5543060000000  0.5694590000000 1.0
C      1  0.4543950000000  0.5556210000000  0.4240010000000 1.0
C      1  0.5556740000000  0.5760000000000  0.5456100000000 1.0
C      1  0.5546290000000  0.4304340000000  0.4530030000000 1.0
C      1  0.4442990000000  0.4242520000000  0.5453440000000 1.0
C      1  0.4329870000000  0.4581120000000  0.5538190000000 1.0
C      1  0.4305690000000  0.5466250000000  0.4457550000000 1.0
C      1  0.5671290000000  0.5422130000000  0.5541050000000 1.0
C      1  0.4167880000000  0.5411830000000  0.4696230000000 1.0
C      1  0.4693860000000  0.4148820000000  0.5402700000000 1.0
C      1  0.5408490000000  0.4681860000000  0.4176530000000 1.0
C      1  0.5821540000000  0.5406430000000  0.5318270000000 1.0
C      1  0.4180470000000  0.4598060000000  0.5314880000000 1.0
C      1  0.5854710000000  0.4593650000000  0.4692440000000 1.0
C      1  0.5308050000000  0.4165640000000  0.4584700000000 1.0
C      1  0.4681800000000  0.5822170000000  0.4592830000000 1.0
C      1  0.5306020000000  0.5853560000000  0.5406320000000 1.0
C      1  0.4590990000000  0.4697690000000  0.5829830000000 1.0
C      1  0.5409690000000  0.5303810000000  0.5831350000000 1.0
C      1  0.4593980000000  0.5305210000000  0.4147450000000 1.0
C      1  0.4692410000000  0.5402970000000  0.4147730000000 1.0
C      1  0.5408890000000  0.4175700000000  0.4680830000000 1.0
C      1  0.4170280000000  0.4698610000000  0.5411330000000 1.0
C      1  0.5314450000000  0.5405600000000  0.5822110000000 1.0
C      1  0.5307940000000  0.4585520000000  0.4165890000000 1.0
C      1  0.4686230000000  0.4596000000000  0.5819900000000 1.0
C      1  0.4595210000000  0.4148750000000  0.5305150000000 1.0
C      1  0.4585640000000  0.5832960000000  0.4693560000000 1.0
C      1  0.5403590000000  0.5852610000000  0.5307690000000 1.0
C      1  0.5853960000000  0.4692530000000  0.4595120000000 1.0
C      1  0.5831570000000  0.5305440000000  0.5414210000000 1.0
C      1  0.4178640000000  0.5315000000000  0.4596090000000 1.0
C      1  0.5441770000000  0.5157410000000  0.4299030000000 1.0
C      1  0.4277470000000  0.5457430000000  0.5178130000000 1.0
C      1  0.5164460000000  0.4290950000000  0.5435880000000 1.0
C      1  0.4552330000000  0.5178940000000  0.5717410000000 1.0
C      1  0.5447840000000  0.4823390000000  0.5714610000000 1.0
C      1  0.4556480000000  0.4833250000000  0.4286270000000 1.0
C      1  0.5700570000000  0.5441070000000  0.4842600000000 1.0
C      1  0.4301530000000  0.4560710000000  0.4839230000000 1.0
C      1  0.5715260000000  0.4553610000000  0.5164080000000 1.0
C      1  0.4827050000000  0.4279800000000  0.4547390000000 1.0
C      1  0.5157360000000  0.5700200000000  0.4558770000000 1.0
C      1  0.4833220000000  0.5717890000000  0.5446340000000 1.0
C      1  0.4279180000000  0.5180830000000  0.5454650000000 1.0
C      1  0.5161960000000  0.5436040000000  0.4293450000000 1.0
C      1  0.5444550000000  0.4295070000000  0.5157090000000 1.0
C      1  0.5706930000000  0.5161880000000  0.4563350000000 1.0
C      1  0.5718820000000  0.4824190000000  0.5449540000000 1.0
C      1  0.4301140000000  0.4839450000000  0.4559950000000 1.0
C      1  0.4836890000000  0.5450000000000  0.5707770000000 1.0
C      1  0.4826940000000  0.4547760000000  0.4279290000000 1.0
C      1  0.5163080000000  0.4553220000000  0.5702980000000 1.0
C      1  0.4556960000000  0.4287100000000  0.4833110000000 1.0
C      1  0.4547760000000  0.5723160000000  0.5175340000000 1.0
C      1  0.5436190000000  0.5706160000000  0.4838200000000 1.0
C      1  0.5571520000000  0.5685310000000  0.5071960000000 1.0
C      1  0.5071720000000  0.5582390000000  0.5679070000000 1.0
C      1  0.5695410000000  0.5047740000000  0.5591480000000 1.0
C      1  0.4406000000000  0.5699710000000  0.4951370000000 1.0
C      1  0.5581540000000  0.4321450000000  0.4924570000000 1.0
C      1  0.4426090000000  0.4314020000000  0.5068830000000 1.0
C      1  0.4928120000000  0.5571280000000  0.4314450000000 1.0
C      1  0.5050980000000  0.4406080000000  0.4300840000000 1.0
C      1  0.4928460000000  0.4421150000000  0.5674070000000 1.0
C      1  0.4324980000000  0.5071850000000  0.4422600000000 1.0
C      1  0.5686500000000  0.4928330000000  0.4427550000000 1.0
C      1  0.4304550000000  0.4955170000000  0.5592370000000 1.0
C      1  0.5069060000000  0.5691030000000  0.5577590000000 1.0
C      1  0.5673790000000  0.5577590000000  0.5075080000000 1.0
C      1  0.5589660000000  0.5047270000000  0.5695430000000 1.0
C      1  0.4925000000000  0.5673640000000  0.4422100000000 1.0
C      1  0.4930790000000  0.4313750000000  0.5571370000000 1.0
C      1  0.5051010000000  0.4301180000000  0.4405640000000 1.0
C      1  0.4300990000000  0.5594960000000  0.4952030000000 1.0
C      1  0.4325960000000  0.4423830000000  0.5071850000000 1.0
C      1  0.5690360000000  0.4422620000000  0.4928070000000 1.0
C      1  0.4425160000000  0.5068810000000  0.4312830000000 1.0
C      1  0.4410500000000  0.4955010000000  0.5696180000000 1.0
C      1  0.5578820000000  0.4925180000000  0.4325200000000 1.0
C      1  0.4385460000000  0.4755560000000  0.4486840000000 1.0
C      1  0.4487660000000  0.4378210000000  0.4752710000000 1.0
C      1  0.4747210000000  0.4475960000000  0.4369600000000 1.0
C      1  0.5628140000000  0.4744210000000  0.5520490000000 1.0
C      1  0.4370170000000  0.5260600000000  0.5526090000000 1.0
C      1  0.5617380000000  0.5242100000000  0.4492460000000 1.0
C      1  0.5516270000000  0.4380420000000  0.5241120000000 1.0
C      1  0.4475380000000  0.5634420000000  0.5256170000000 1.0
C      1  0.5507220000000  0.5616760000000  0.4757940000000 1.0
C      1  0.5245800000000  0.4482500000000  0.5614970000000 1.0
C      1  0.4753190000000  0.5522080000000  0.5621810000000 1.0
C      1  0.5242160000000  0.5507020000000  0.4382930000000 1.0
C      1  0.4487300000000  0.4752890000000  0.4377500000000 1.0
C      1  0.4747260000000  0.4370070000000  0.4475580000000 1.0
C      1  0.4385760000000  0.4487510000000  0.4755350000000 1.0
C      1  0.5521010000000  0.4743910000000  0.5625210000000 1.0
C      1  0.5511990000000  0.5240410000000  0.4386640000000 1.0
C      1  0.4478580000000  0.5259520000000  0.5629600000000 1.0
C      1  0.5245940000000  0.4378590000000  0.5507580000000 1.0
C      1  0.5240420000000  0.5612760000000  0.4488400000000 1.0
C      1  0.4751830000000  0.5628770000000  0.5517040000000 1.0
C      1  0.5624390000000  0.4483550000000  0.5244150000000 1.0
C      1  0.5613070000000  0.5511400000000  0.4759590000000 1.0
C      1  0.4368120000000  0.5529710000000  0.5257620000000 1.0
C      1  0.4579060000000  0.4150760000000  0.5047130000000 1.0
C      1  0.5049980000000  0.4568610000000  0.4149510000000 1.0
C      1  0.4169560000000  0.5056860000000  0.4581090000000 1.0
C      1  0.5424670000000  0.4164430000000  0.4938710000000 1.0
C      1  0.4568930000000  0.5850920000000  0.4951430000000 1.0
C      1  0.5416920000000  0.5846130000000  0.5049610000000 1.0
C      1  0.4944010000000  0.4577060000000  0.5832580000000 1.0
C      1  0.5056660000000  0.5424620000000  0.5835870000000 1.0
C      1  0.4950450000000  0.5416510000000  0.4153760000000 1.0
C      1  0.5848100000000  0.5047460000000  0.5430050000000 1.0
C      1  0.4152000000000  0.4956530000000  0.5430020000000 1.0
C      1  0.5847050000000  0.4950620000000  0.4582510000000 1.0
C      1  0.5050000000000  0.4149700000000  0.4567970000000 1.0
C      1  0.4170440000000  0.4582200000000  0.5056860000000 1.0
C      1  0.4578450000000  0.5047170000000  0.4149810000000 1.0
C      1  0.4951960000000  0.4153260000000  0.5415930000000 1.0
C      1  0.4939670000000  0.5832310000000  0.4577120000000 1.0
C      1  0.5047950000000  0.5852710000000  0.5422680000000 1.0
C      1  0.5852160000000  0.4576960000000  0.4950440000000 1.0
C      1  0.5832270000000  0.5422380000000  0.5060470000000 1.0
C      1  0.4149790000000  0.5431500000000  0.4954120000000 1.0
C      1  0.5425950000000  0.5045480000000  0.5845500000000 1.0
C      1  0.5423510000000  0.4939800000000  0.4166790000000 1.0
C      1  0.4574780000000  0.4955860000000  0.5845970000000 1.0
C      1  0.4467720000000  0.4610490000000  0.5532870000000 1.0
C      1  0.5654210000000  0.4478510000000  0.4373900000000 1.0
C      1  0.4481320000000  0.4351330000000  0.5622760000000 1.0
C      1  0.4478410000000  0.5623210000000  0.4348460000000 1.0
C      1  0.5654430000000  0.4373900000000  0.4477710000000 1.0
C      1  0.4464650000000  0.5534720000000  0.4608070000000 1.0
C      1  0.4374380000000  0.5518790000000  0.4348970000000 1.0
C      1  0.5395260000000  0.4463360000000  0.4463400000000 1.0
C      1  0.5533380000000  0.5392770000000  0.5534960000000 1.0
C      1  0.5519210000000  0.5651430000000  0.5625900000000 1.0
C      1  0.4376890000000  0.4351650000000  0.5518770000000 1.0
C      1  0.5623470000000  0.5651430000000  0.5521750000000 1.0
END
