TITL C-855863-9781-380 40.7819838147644 1000000 -3764.67561270028 0 0 540 (Th) n - 1
REM
REM in /scratch/bkarasulu/Larger-Clusters
REM
REM
REM
REM
REM
REM ./C.cell (28d0ae7d613b82ecca3ae8fabf5dfced)
REM
REM compiler GCC version 9.2.1 20190827 (Red Hat 9.2.1-1)
REM options -cpp -mtune=generic -march=x86-64 -g -O0 -fpre-include=/usr/include/finclude/math-vector-fortran.h
REM seed -145742033 -260227098 -1384121080 206157874 -1171422351 -1195672354 2009672066 1169714428 -1586711390 -521142048 -26088783 537850766 1839694827 2047247353 1906380695 1666396874 -1754455571 1963332419 1890857957 -502071856 -1163750044 -642592868 -1968058423 -1009641192 -979961 -1748816055 1883186000 -286463130 -703962710 1351014140 -632188903 -1499909889 328304552
REM
CELL 1.54180  100.00000  100.00000  100.00000   90.00000   90.00000   90.00000
LATT -1
SFAC C  
C      1  0.4931110000000  0.5399660000000  0.4197910000000 1.0
C      1  0.4197910000000  0.4931110000000  0.5399660000000 1.0
C      1  0.5399660000000  0.4197900000000  0.4931110000000 1.0
C      1  0.5068900000000  0.5399670000000  0.5802090000000 1.0
C      1  0.4931100000000  0.4600340000000  0.5802090000000 1.0
C      1  0.5068900000000  0.4600330000000  0.4197910000000 1.0
C      1  0.5802090000000  0.4931090000000  0.4600340000000 1.0
C      1  0.4197910000000  0.5068900000000  0.4600330000000 1.0
C      1  0.5802090000000  0.5068890000000  0.5399670000000 1.0
C      1  0.4600330000000  0.4197910000000  0.5068900000000 1.0
C      1  0.5399670000000  0.5802090000000  0.5068890000000 1.0
C      1  0.4600340000000  0.5802100000000  0.4931100000000 1.0
C      1  0.4931100000000  0.4600330000000  0.4197910000000 1.0
C      1  0.4197910000000  0.5068910000000  0.5399660000000 1.0
C      1  0.5399670000000  0.5802090000000  0.4931100000000 1.0
C      1  0.5068890000000  0.4600340000000  0.5802090000000 1.0
C      1  0.4931100000000  0.5399670000000  0.5802090000000 1.0
C      1  0.5068900000000  0.5399660000000  0.4197910000000 1.0
C      1  0.5802090000000  0.5068890000000  0.4600340000000 1.0
C      1  0.4197910000000  0.4931110000000  0.4600330000000 1.0
C      1  0.5802090000000  0.4931100000000  0.5399670000000 1.0
C      1  0.4600340000000  0.5802100000000  0.5068890000000 1.0
C      1  0.5399660000000  0.4197900000000  0.5068900000000 1.0
C      1  0.4600330000000  0.4197910000000  0.4931110000000 1.0
C      1  0.4448970000000  0.4938700000000  0.4864640000000 1.0
C      1  0.4864630000000  0.4448970000000  0.4938700000000 1.0
C      1  0.4938700000000  0.4864640000000  0.4448970000000 1.0
C      1  0.5551030000000  0.4938690000000  0.5135360000000 1.0
C      1  0.4448960000000  0.5061310000000  0.5135360000000 1.0
C      1  0.5551040000000  0.5061290000000  0.4864640000000 1.0
C      1  0.5135360000000  0.4448960000000  0.5061300000000 1.0
C      1  0.4864640000000  0.5551040000000  0.5061300000000 1.0
C      1  0.5135370000000  0.5551030000000  0.4938700000000 1.0
C      1  0.5061300000000  0.4864640000000  0.5551040000000 1.0
C      1  0.4938700000000  0.5135370000000  0.5551030000000 1.0
C      1  0.5061300000000  0.5135360000000  0.4448960000000 1.0
C      1  0.4448970000000  0.5061310000000  0.4864640000000 1.0
C      1  0.4864640000000  0.5551040000000  0.4938700000000 1.0
C      1  0.4938700000000  0.5135360000000  0.4448960000000 1.0
C      1  0.5551040000000  0.5061300000000  0.5135360000000 1.0
C      1  0.4448960000000  0.4938710000000  0.5135360000000 1.0
C      1  0.5551040000000  0.4938690000000  0.4864640000000 1.0
C      1  0.5135370000000  0.5551030000000  0.5061300000000 1.0
C      1  0.4864630000000  0.4448970000000  0.5061300000000 1.0
C      1  0.5135360000000  0.4448960000000  0.4938700000000 1.0
C      1  0.5061300000000  0.5135360000000  0.5551030000000 1.0
C      1  0.4938700000000  0.4864640000000  0.5551040000000 1.0
C      1  0.5061300000000  0.4864630000000  0.4448970000000 1.0
C      1  0.5515210000000  0.4743390000000  0.4274440000000 1.0
C      1  0.4274450000000  0.5515210000000  0.4743390000000 1.0
C      1  0.4743390000000  0.4274450000000  0.5515210000000 1.0
C      1  0.4484790000000  0.4743400000000  0.5725560000000 1.0
C      1  0.5515210000000  0.5256600000000  0.5725560000000 1.0
C      1  0.4484800000000  0.5256610000000  0.4274440000000 1.0
C      1  0.5725560000000  0.5515200000000  0.5256600000000 1.0
C      1  0.4274440000000  0.4484800000000  0.5256610000000 1.0
C      1  0.5725550000000  0.4484790000000  0.4743400000000 1.0
C      1  0.5256600000000  0.4274440000000  0.4484800000000 1.0
C      1  0.4743400000000  0.5725560000000  0.4484790000000 1.0
C      1  0.5256610000000  0.5725560000000  0.5515200000000 1.0
C      1  0.5515210000000  0.5256600000000  0.4274440000000 1.0
C      1  0.4274440000000  0.4484800000000  0.4743400000000 1.0
C      1  0.4743400000000  0.5725560000000  0.5515200000000 1.0
C      1  0.4484790000000  0.5256610000000  0.5725560000000 1.0
C      1  0.5515200000000  0.4743390000000  0.5725560000000 1.0
C      1  0.4484790000000  0.4743400000000  0.4274440000000 1.0
C      1  0.5725550000000  0.4484790000000  0.5256610000000 1.0
C      1  0.4274450000000  0.5515210000000  0.5256600000000 1.0
C      1  0.5725560000000  0.5515200000000  0.4743390000000 1.0
C      1  0.5256610000000  0.5725550000000  0.4484790000000 1.0
C      1  0.4743390000000  0.4274440000000  0.4484800000000 1.0
C      1  0.5256600000000  0.4274440000000  0.5515210000000 1.0
C      1  0.5498160000000  0.4933940000000  0.4037880000000 1.0
C      1  0.4037880000000  0.5498170000000  0.4933940000000 1.0
C      1  0.4933940000000  0.4037880000000  0.5498160000000 1.0
C      1  0.4501840000000  0.4933960000000  0.5962120000000 1.0
C      1  0.5498150000000  0.5066050000000  0.5962120000000 1.0
C      1  0.4501850000000  0.5066050000000  0.4037880000000 1.0
C      1  0.5962130000000  0.5498150000000  0.5066050000000 1.0
C      1  0.4037870000000  0.4501850000000  0.5066050000000 1.0
C      1  0.5962120000000  0.4501830000000  0.4933950000000 1.0
C      1  0.5066040000000  0.4037870000000  0.4501850000000 1.0
C      1  0.4933960000000  0.5962120000000  0.4501840000000 1.0
C      1  0.5066060000000  0.5962120000000  0.5498150000000 1.0
C      1  0.5498160000000  0.5066040000000  0.4037880000000 1.0
C      1  0.4037870000000  0.4501850000000  0.4933950000000 1.0
C      1  0.4933960000000  0.5962130000000  0.5498150000000 1.0
C      1  0.4501840000000  0.5066060000000  0.5962120000000 1.0
C      1  0.5498150000000  0.4933950000000  0.5962120000000 1.0
C      1  0.4501850000000  0.4933950000000  0.4037880000000 1.0
C      1  0.5962120000000  0.4501830000000  0.5066060000000 1.0
C      1  0.4037880000000  0.5498170000000  0.5066040000000 1.0
C      1  0.5962130000000  0.5498150000000  0.4933950000000 1.0
C      1  0.5066060000000  0.5962120000000  0.4501840000000 1.0
C      1  0.4933940000000  0.4037880000000  0.4501850000000 1.0
C      1  0.5066040000000  0.4037880000000  0.5498160000000 1.0
C      1  0.4816620000000  0.4926500000000  0.5565660000000 1.0
C      1  0.5565660000000  0.4816620000000  0.4926500000000 1.0
C      1  0.4926500000000  0.5565660000000  0.4816620000000 1.0
C      1  0.5183380000000  0.4926490000000  0.4434340000000 1.0
C      1  0.4816630000000  0.5073500000000  0.4434340000000 1.0
C      1  0.5183380000000  0.5073510000000  0.5565660000000 1.0
C      1  0.4434340000000  0.4816630000000  0.5073500000000 1.0
C      1  0.5565660000000  0.5183370000000  0.5073510000000 1.0
C      1  0.4434340000000  0.5183380000000  0.4926490000000 1.0
C      1  0.5073510000000  0.5565660000000  0.5183370000000 1.0
C      1  0.4926490000000  0.4434340000000  0.5183380000000 1.0
C      1  0.5073500000000  0.4434340000000  0.4816630000000 1.0
C      1  0.4816620000000  0.5073510000000  0.5565660000000 1.0
C      1  0.5565660000000  0.5183370000000  0.4926500000000 1.0
C      1  0.4926490000000  0.4434340000000  0.4816630000000 1.0
C      1  0.5183380000000  0.5073500000000  0.4434340000000 1.0
C      1  0.4816620000000  0.4926490000000  0.4434340000000 1.0
C      1  0.5183370000000  0.4926500000000  0.5565660000000 1.0
C      1  0.4434340000000  0.5183380000000  0.5073500000000 1.0
C      1  0.5565660000000  0.4816620000000  0.5073510000000 1.0
C      1  0.4434340000000  0.4816630000000  0.4926490000000 1.0
C      1  0.5073500000000  0.4434340000000  0.5183380000000 1.0
C      1  0.4926500000000  0.5565660000000  0.5183370000000 1.0
C      1  0.5073510000000  0.5565660000000  0.4816620000000 1.0
C      1  0.4114420000000  0.5065160000000  0.4821380000000 1.0
C      1  0.4821380000000  0.4114420000000  0.5065150000000 1.0
C      1  0.5065150000000  0.4821380000000  0.4114420000000 1.0
C      1  0.5885580000000  0.5065140000000  0.5178620000000 1.0
C      1  0.4114420000000  0.4934860000000  0.5178610000000 1.0
C      1  0.5885580000000  0.4934840000000  0.4821390000000 1.0
C      1  0.5178610000000  0.4114420000000  0.4934860000000 1.0
C      1  0.4821390000000  0.5885580000000  0.4934840000000 1.0
C      1  0.5178620000000  0.5885580000000  0.5065150000000 1.0
C      1  0.4934850000000  0.4821390000000  0.5885580000000 1.0
C      1  0.5065150000000  0.5178620000000  0.5885580000000 1.0
C      1  0.4934850000000  0.5178610000000  0.4114420000000 1.0
C      1  0.4114420000000  0.4934860000000  0.4821380000000 1.0
C      1  0.4821390000000  0.5885580000000  0.5065140000000 1.0
C      1  0.5065150000000  0.5178610000000  0.4114420000000 1.0
C      1  0.5885580000000  0.4934840000000  0.5178620000000 1.0
C      1  0.4114420000000  0.5065160000000  0.5178610000000 1.0
C      1  0.5885580000000  0.5065140000000  0.4821390000000 1.0
C      1  0.5178630000000  0.5885580000000  0.4934850000000 1.0
C      1  0.4821380000000  0.4114420000000  0.4934850000000 1.0
C      1  0.5178610000000  0.4114420000000  0.5065160000000 1.0
C      1  0.4934850000000  0.5178620000000  0.5885580000000 1.0
C      1  0.5065150000000  0.4821390000000  0.5885580000000 1.0
C      1  0.4934850000000  0.4821380000000  0.4114420000000 1.0
C      1  0.4531180000000  0.4297150000000  0.5142090000000 1.0
C      1  0.5142080000000  0.4531180000000  0.4297150000000 1.0
C      1  0.4297150000000  0.5142090000000  0.4531180000000 1.0
C      1  0.5468810000000  0.4297140000000  0.4857920000000 1.0
C      1  0.4531190000000  0.5702860000000  0.4857910000000 1.0
C      1  0.5468820000000  0.5702850000000  0.5142080000000 1.0
C      1  0.4857910000000  0.4531190000000  0.5702860000000 1.0
C      1  0.5142090000000  0.5468820000000  0.5702850000000 1.0
C      1  0.4857920000000  0.5468810000000  0.4297140000000 1.0
C      1  0.5702860000000  0.5142080000000  0.5468820000000 1.0
C      1  0.4297140000000  0.4857930000000  0.5468810000000 1.0
C      1  0.5702860000000  0.4857910000000  0.4531190000000 1.0
C      1  0.4531190000000  0.5702860000000  0.5142080000000 1.0
C      1  0.5142090000000  0.5468810000000  0.4297140000000 1.0
C      1  0.4297140000000  0.4857920000000  0.4531180000000 1.0
C      1  0.5468820000000  0.5702850000000  0.4857910000000 1.0
C      1  0.4531180000000  0.4297150000000  0.4857920000000 1.0
C      1  0.5468810000000  0.4297140000000  0.5142090000000 1.0
C      1  0.4857920000000  0.5468820000000  0.5702850000000 1.0
C      1  0.5142080000000  0.4531190000000  0.5702860000000 1.0
C      1  0.4857910000000  0.4531180000000  0.4297150000000 1.0
C      1  0.5702850000000  0.4857910000000  0.5468820000000 1.0
C      1  0.4297140000000  0.5142090000000  0.5468810000000 1.0
C      1  0.5702860000000  0.5142070000000  0.4531190000000 1.0
C      1  0.4702360000000  0.4434510000000  0.4695940000000 1.0
C      1  0.4695930000000  0.4702360000000  0.4434510000000 1.0
C      1  0.4434510000000  0.4695940000000  0.4702360000000 1.0
C      1  0.5297630000000  0.4434510000000  0.5304070000000 1.0
C      1  0.4702370000000  0.5565500000000  0.5304060000000 1.0
C      1  0.5297640000000  0.5565490000000  0.4695930000000 1.0
C      1  0.5304060000000  0.4702360000000  0.5565490000000 1.0
C      1  0.4695930000000  0.5297640000000  0.5565490000000 1.0
C      1  0.5304070000000  0.5297630000000  0.4434510000000 1.0
C      1  0.5565490000000  0.4695930000000  0.5297640000000 1.0
C      1  0.4434510000000  0.5304070000000  0.5297630000000 1.0
C      1  0.5565500000000  0.5304060000000  0.4702360000000 1.0
C      1  0.4702370000000  0.5565490000000  0.4695930000000 1.0
C      1  0.4695940000000  0.5297640000000  0.4434510000000 1.0
C      1  0.4434510000000  0.5304070000000  0.4702360000000 1.0
C      1  0.5297640000000  0.5565490000000  0.5304060000000 1.0
C      1  0.4702360000000  0.4434510000000  0.5304070000000 1.0
C      1  0.5297630000000  0.4434500000000  0.4695940000000 1.0
C      1  0.5304070000000  0.5297640000000  0.5565490000000 1.0
C      1  0.4695930000000  0.4702370000000  0.5565490000000 1.0
C      1  0.5304070000000  0.4702360000000  0.4434510000000 1.0
C      1  0.5565490000000  0.5304060000000  0.5297640000000 1.0
C      1  0.4434500000000  0.4695940000000  0.5297640000000 1.0
C      1  0.5565490000000  0.4695930000000  0.4702370000000 1.0
C      1  0.4862010000000  0.5647750000000  0.5529480000000 1.0
C      1  0.5529480000000  0.4862000000000  0.5647740000000 1.0
C      1  0.5647750000000  0.5529480000000  0.4862000000000 1.0
C      1  0.5138010000000  0.5647740000000  0.4470510000000 1.0
C      1  0.4862000000000  0.4352260000000  0.4470520000000 1.0
C      1  0.5137990000000  0.4352260000000  0.5529490000000 1.0
C      1  0.4470520000000  0.4862000000000  0.4352260000000 1.0
C      1  0.5529490000000  0.5137990000000  0.4352260000000 1.0
C      1  0.4470520000000  0.5138010000000  0.5647740000000 1.0
C      1  0.4352260000000  0.5529490000000  0.5137990000000 1.0
C      1  0.5647740000000  0.4470510000000  0.5138000000000 1.0
C      1  0.4352250000000  0.4470520000000  0.4862000000000 1.0
C      1  0.4861990000000  0.4352260000000  0.5529490000000 1.0
C      1  0.5529480000000  0.5138000000000  0.5647740000000 1.0
C      1  0.5647740000000  0.4470510000000  0.4862010000000 1.0
C      1  0.5137990000000  0.4352250000000  0.4470520000000 1.0
C      1  0.4862010000000  0.5647740000000  0.4470510000000 1.0
C      1  0.5138000000000  0.5647740000000  0.5529480000000 1.0
C      1  0.4470520000000  0.5138000000000  0.4352260000000 1.0
C      1  0.5529480000000  0.4861990000000  0.4352260000000 1.0
C      1  0.4470510000000  0.4862010000000  0.5647740000000 1.0
C      1  0.4352250000000  0.4470520000000  0.5138000000000 1.0
C      1  0.5647750000000  0.5529480000000  0.5138000000000 1.0
C      1  0.4352260000000  0.5529490000000  0.4862000000000 1.0
C      1  0.5656760000000  0.4918160000000  0.5599640000000 1.0
C      1  0.5599640000000  0.5656760000000  0.4918160000000 1.0
C      1  0.4918160000000  0.5599640000000  0.5656760000000 1.0
C      1  0.4343240000000  0.4918160000000  0.4400360000000 1.0
C      1  0.5656770000000  0.5081830000000  0.4400360000000 1.0
C      1  0.4343230000000  0.5081850000000  0.5599640000000 1.0
C      1  0.4400370000000  0.5656770000000  0.5081840000000 1.0
C      1  0.5599630000000  0.4343230000000  0.5081850000000 1.0
C      1  0.4400360000000  0.4343240000000  0.4918160000000 1.0
C      1  0.5081850000000  0.5599630000000  0.4343230000000 1.0
C      1  0.4918160000000  0.4400360000000  0.4343240000000 1.0
C      1  0.5081830000000  0.4400360000000  0.5656770000000 1.0
C      1  0.5656760000000  0.5081840000000  0.5599640000000 1.0
C      1  0.5599630000000  0.4343230000000  0.4918160000000 1.0
C      1  0.4918150000000  0.4400370000000  0.5656770000000 1.0
C      1  0.4343240000000  0.5081840000000  0.4400360000000 1.0
C      1  0.5656770000000  0.4918150000000  0.4400360000000 1.0
C      1  0.4343230000000  0.4918170000000  0.5599640000000 1.0
C      1  0.4400360000000  0.4343240000000  0.5081840000000 1.0
C      1  0.5599640000000  0.5656760000000  0.5081840000000 1.0
C      1  0.4400370000000  0.5656770000000  0.4918150000000 1.0
C      1  0.5081840000000  0.4400360000000  0.4343240000000 1.0
C      1  0.4918170000000  0.5599640000000  0.4343230000000 1.0
C      1  0.5081850000000  0.5599640000000  0.5656760000000 1.0
C      1  0.4528380000000  0.4518720000000  0.5576850000000 1.0
C      1  0.5576850000000  0.4528370000000  0.4518720000000 1.0
C      1  0.4518720000000  0.5576850000000  0.4528380000000 1.0
C      1  0.5471610000000  0.4518700000000  0.4423150000000 1.0
C      1  0.4528390000000  0.5481290000000  0.4423140000000 1.0
C      1  0.5471620000000  0.5481290000000  0.5576850000000 1.0
C      1  0.4423140000000  0.4528390000000  0.5481290000000 1.0
C      1  0.5576860000000  0.5471610000000  0.5481290000000 1.0
C      1  0.4423150000000  0.5471620000000  0.4518710000000 1.0
C      1  0.5481290000000  0.5576850000000  0.5471620000000 1.0
C      1  0.4518700000000  0.4423160000000  0.5471620000000 1.0
C      1  0.5481280000000  0.4423140000000  0.4528390000000 1.0
C      1  0.4528390000000  0.5481300000000  0.5576850000000 1.0
C      1  0.5576860000000  0.5471610000000  0.4518710000000 1.0
C      1  0.4518710000000  0.4423150000000  0.4528390000000 1.0
C      1  0.5471620000000  0.5481280000000  0.4423150000000 1.0
C      1  0.4528380000000  0.4518710000000  0.4423150000000 1.0
C      1  0.5471610000000  0.4518710000000  0.5576860000000 1.0
C      1  0.4423150000000  0.5471630000000  0.5481280000000 1.0
C      1  0.5576850000000  0.4528380000000  0.5481290000000 1.0
C      1  0.4423140000000  0.4528390000000  0.4518710000000 1.0
C      1  0.5481280000000  0.4423150000000  0.5471620000000 1.0
C      1  0.4518720000000  0.5576860000000  0.5471610000000 1.0
C      1  0.5481290000000  0.5576840000000  0.4528380000000 1.0
C      1  0.4742560000000  0.5384330000000  0.5677990000000 1.0
C      1  0.5677990000000  0.4742550000000  0.5384330000000 1.0
C      1  0.5384330000000  0.5677990000000  0.4742560000000 1.0
C      1  0.5257450000000  0.5384320000000  0.4322010000000 1.0
C      1  0.4742560000000  0.4615670000000  0.4322010000000 1.0
C      1  0.5257440000000  0.4615680000000  0.5677990000000 1.0
C      1  0.4322010000000  0.4742560000000  0.4615670000000 1.0
C      1  0.5677990000000  0.5257430000000  0.4615670000000 1.0
C      1  0.4322010000000  0.5257450000000  0.5384320000000 1.0
C      1  0.4615680000000  0.5678000000000  0.5257440000000 1.0
C      1  0.5384320000000  0.4322010000000  0.5257450000000 1.0
C      1  0.4615670000000  0.4322010000000  0.4742560000000 1.0
C      1  0.4742550000000  0.4615680000000  0.5677990000000 1.0
C      1  0.5677990000000  0.5257440000000  0.5384330000000 1.0
C      1  0.5384320000000  0.4322000000000  0.4742560000000 1.0
C      1  0.5257440000000  0.4615670000000  0.4322010000000 1.0
C      1  0.4742560000000  0.5384320000000  0.4322010000000 1.0
C      1  0.5257440000000  0.5384330000000  0.5677990000000 1.0
C      1  0.4322010000000  0.5257450000000  0.4615670000000 1.0
C      1  0.5677990000000  0.4742550000000  0.4615680000000 1.0
C      1  0.4322010000000  0.4742570000000  0.5384330000000 1.0
C      1  0.4615670000000  0.4322010000000  0.5257440000000 1.0
C      1  0.5384330000000  0.5677990000000  0.5257440000000 1.0
C      1  0.4615680000000  0.5677990000000  0.4742550000000 1.0
C      1  0.4611660000000  0.4617100000000  0.5491870000000 1.0
C      1  0.5491870000000  0.4611660000000  0.4617100000000 1.0
C      1  0.4617100000000  0.5491870000000  0.4611670000000 1.0
C      1  0.5388330000000  0.4617090000000  0.4508130000000 1.0
C      1  0.4611680000000  0.5382910000000  0.4508130000000 1.0
C      1  0.5388330000000  0.5382900000000  0.5491870000000 1.0
C      1  0.4508120000000  0.4611680000000  0.5382910000000 1.0
C      1  0.5491870000000  0.5388330000000  0.5382900000000 1.0
C      1  0.4508140000000  0.5388330000000  0.4617090000000 1.0
C      1  0.5382910000000  0.5491870000000  0.5388330000000 1.0
C      1  0.4617090000000  0.4508140000000  0.5388330000000 1.0
C      1  0.5382900000000  0.4508120000000  0.4611670000000 1.0
C      1  0.4611670000000  0.5382910000000  0.5491870000000 1.0
C      1  0.5491880000000  0.5388320000000  0.4617090000000 1.0
C      1  0.4617090000000  0.4508130000000  0.4611670000000 1.0
C      1  0.5388340000000  0.5382900000000  0.4508130000000 1.0
C      1  0.4611670000000  0.4617100000000  0.4508130000000 1.0
C      1  0.5388330000000  0.4617090000000  0.5491870000000 1.0
C      1  0.4508130000000  0.5388340000000  0.5382900000000 1.0
C      1  0.5491870000000  0.4611670000000  0.5382910000000 1.0
C      1  0.4508130000000  0.4611670000000  0.4617100000000 1.0
C      1  0.5382900000000  0.4508130000000  0.5388330000000 1.0
C      1  0.4617100000000  0.5491880000000  0.5388330000000 1.0
C      1  0.5382910000000  0.5491860000000  0.4611670000000 1.0
C      1  0.4237000000000  0.5753030000000  0.5244720000000 1.0
C      1  0.5244720000000  0.4237000000000  0.5753020000000 1.0
C      1  0.5753020000000  0.5244710000000  0.4237000000000 1.0
C      1  0.5763010000000  0.5753010000000  0.4755270000000 1.0
C      1  0.4236990000000  0.4246990000000  0.4755280000000 1.0
C      1  0.5762990000000  0.4246980000000  0.5244730000000 1.0
C      1  0.4755270000000  0.4237000000000  0.4246990000000 1.0
C      1  0.5244730000000  0.5763000000000  0.4246980000000 1.0
C      1  0.4755280000000  0.5763010000000  0.5753010000000 1.0
C      1  0.4246980000000  0.5244740000000  0.5763000000000 1.0
C      1  0.5753010000000  0.4755270000000  0.5763010000000 1.0
C      1  0.4246980000000  0.4755280000000  0.4237000000000 1.0
C      1  0.4236990000000  0.4246990000000  0.5244730000000 1.0
C      1  0.5244730000000  0.5763000000000  0.5753010000000 1.0
C      1  0.5753020000000  0.4755260000000  0.4237000000000 1.0
C      1  0.5763000000000  0.4246970000000  0.4755280000000 1.0
C      1  0.4237010000000  0.5753020000000  0.4755270000000 1.0
C      1  0.5763010000000  0.5753010000000  0.5244720000000 1.0
C      1  0.4755280000000  0.5763000000000  0.4246980000000 1.0
C      1  0.5244720000000  0.4236990000000  0.4246990000000 1.0
C      1  0.4755270000000  0.4237000000000  0.5753020000000 1.0
C      1  0.4246980000000  0.4755290000000  0.5763000000000 1.0
C      1  0.5753020000000  0.5244720000000  0.5763000000000 1.0
C      1  0.4246990000000  0.5244730000000  0.4236990000000 1.0
C      1  0.4148720000000  0.5144730000000  0.4711720000000 1.0
C      1  0.4711710000000  0.4148720000000  0.5144720000000 1.0
C      1  0.5144720000000  0.4711710000000  0.4148720000000 1.0
C      1  0.5851290000000  0.5144710000000  0.5288280000000 1.0
C      1  0.4148710000000  0.4855290000000  0.5288280000000 1.0
C      1  0.5851280000000  0.4855270000000  0.4711720000000 1.0
C      1  0.5288270000000  0.4148710000000  0.4855290000000 1.0
C      1  0.4711730000000  0.5851290000000  0.4855270000000 1.0
C      1  0.5288290000000  0.5851280000000  0.5144720000000 1.0
C      1  0.4855280000000  0.4711730000000  0.5851290000000 1.0
C      1  0.5144720000000  0.5288280000000  0.5851280000000 1.0
C      1  0.4855290000000  0.5288280000000  0.4148710000000 1.0
C      1  0.4148720000000  0.4855290000000  0.4711720000000 1.0
C      1  0.4711730000000  0.5851290000000  0.5144710000000 1.0
C      1  0.5144720000000  0.5288270000000  0.4148710000000 1.0
C      1  0.5851280000000  0.4855270000000  0.5288280000000 1.0
C      1  0.4148710000000  0.5144730000000  0.5288280000000 1.0
C      1  0.5851290000000  0.5144710000000  0.4711720000000 1.0
C      1  0.5288290000000  0.5851280000000  0.4855280000000 1.0
C      1  0.4711710000000  0.4148720000000  0.4855280000000 1.0
C      1  0.5288270000000  0.4148710000000  0.5144730000000 1.0
C      1  0.4855280000000  0.5288290000000  0.5851280000000 1.0
C      1  0.5144710000000  0.4711720000000  0.5851290000000 1.0
C      1  0.4855280000000  0.4711720000000  0.4148720000000 1.0
C      1  0.5148690000000  0.4425040000000  0.4698800000000 1.0
C      1  0.4698800000000  0.5148700000000  0.4425050000000 1.0
C      1  0.4425040000000  0.4698800000000  0.5148700000000 1.0
C      1  0.4851290000000  0.4425050000000  0.5301210000000 1.0
C      1  0.5148700000000  0.5574950000000  0.5301200000000 1.0
C      1  0.4851310000000  0.5574950000000  0.4698790000000 1.0
C      1  0.5301210000000  0.5148700000000  0.5574950000000 1.0
C      1  0.4698790000000  0.4851310000000  0.5574950000000 1.0
C      1  0.5301210000000  0.4851300000000  0.4425050000000 1.0
C      1  0.5574950000000  0.4698790000000  0.4851310000000 1.0
C      1  0.4425050000000  0.5301210000000  0.4851300000000 1.0
C      1  0.5574960000000  0.5301200000000  0.5148700000000 1.0
C      1  0.5148700000000  0.5574950000000  0.4698790000000 1.0
C      1  0.4698790000000  0.4851300000000  0.4425050000000 1.0
C      1  0.4425050000000  0.5301210000000  0.5148690000000 1.0
C      1  0.4851310000000  0.5574960000000  0.5301200000000 1.0
C      1  0.5148690000000  0.4425050000000  0.5301210000000 1.0
C      1  0.4851300000000  0.4425050000000  0.4698800000000 1.0
C      1  0.5301200000000  0.4851300000000  0.5574960000000 1.0
C      1  0.4698790000000  0.5148700000000  0.5574950000000 1.0
C      1  0.5301210000000  0.5148690000000  0.4425050000000 1.0
C      1  0.5574960000000  0.5301200000000  0.4851300000000 1.0
C      1  0.4425040000000  0.4698800000000  0.4851300000000 1.0
C      1  0.5574950000000  0.4698790000000  0.5148700000000 1.0
C      1  0.5442430000000  0.5173150000000  0.4070930000000 1.0
C      1  0.4070930000000  0.5442430000000  0.5173160000000 1.0
C      1  0.5173150000000  0.4070930000000  0.5442430000000 1.0
C      1  0.4557570000000  0.5173170000000  0.5929070000000 1.0
C      1  0.5442420000000  0.4826840000000  0.5929070000000 1.0
C      1  0.4557580000000  0.4826830000000  0.4070930000000 1.0
C      1  0.5929080000000  0.5442410000000  0.4826840000000 1.0
C      1  0.4070930000000  0.4557580000000  0.4826840000000 1.0
C      1  0.5929070000000  0.4557570000000  0.5173170000000 1.0
C      1  0.4826830000000  0.4070930000000  0.4557580000000 1.0
C      1  0.5173180000000  0.5929070000000  0.4557570000000 1.0
C      1  0.4826840000000  0.5929080000000  0.5442420000000 1.0
C      1  0.5442430000000  0.4826830000000  0.4070930000000 1.0
C      1  0.4070920000000  0.4557590000000  0.5173160000000 1.0
C      1  0.5173170000000  0.5929070000000  0.5442420000000 1.0
C      1  0.4557570000000  0.4826850000000  0.5929070000000 1.0
C      1  0.5442420000000  0.5173170000000  0.5929070000000 1.0
C      1  0.4557580000000  0.5173160000000  0.4070930000000 1.0
C      1  0.5929070000000  0.4557570000000  0.4826840000000 1.0
C      1  0.4070930000000  0.5442430000000  0.4826830000000 1.0
C      1  0.5929080000000  0.5442420000000  0.5173160000000 1.0
C      1  0.4826850000000  0.5929070000000  0.4557570000000 1.0
C      1  0.5173160000000  0.4070920000000  0.4557580000000 1.0
C      1  0.4826830000000  0.4070930000000  0.5442430000000 1.0
C      1  0.5767220000000  0.5116420000000  0.4283730000000 1.0
C      1  0.4283740000000  0.5767230000000  0.5116430000000 1.0
C      1  0.5116420000000  0.4283730000000  0.5767230000000 1.0
C      1  0.4232780000000  0.5116450000000  0.5716270000000 1.0
C      1  0.5767220000000  0.4883560000000  0.5716270000000 1.0
C      1  0.4232780000000  0.4883570000000  0.4283730000000 1.0
C      1  0.5716280000000  0.5767210000000  0.4883560000000 1.0
C      1  0.4283720000000  0.4232790000000  0.4883570000000 1.0
C      1  0.5716260000000  0.4232770000000  0.5116440000000 1.0
C      1  0.4883560000000  0.4283730000000  0.4232780000000 1.0
C      1  0.5116440000000  0.5716260000000  0.4232780000000 1.0
C      1  0.4883570000000  0.5716280000000  0.5767220000000 1.0
C      1  0.5767220000000  0.4883550000000  0.4283730000000 1.0
C      1  0.4283720000000  0.4232790000000  0.5116440000000 1.0
C      1  0.5116440000000  0.5716270000000  0.5767220000000 1.0
C      1  0.4232780000000  0.4883580000000  0.5716270000000 1.0
C      1  0.5767220000000  0.5116430000000  0.5716270000000 1.0
C      1  0.4232780000000  0.5116440000000  0.4283730000000 1.0
C      1  0.5716260000000  0.4232770000000  0.4883570000000 1.0
C      1  0.4283740000000  0.5767230000000  0.4883560000000 1.0
C      1  0.5716280000000  0.5767210000000  0.5116430000000 1.0
C      1  0.4883580000000  0.5716270000000  0.4232770000000 1.0
C      1  0.5116430000000  0.4283720000000  0.4232780000000 1.0
C      1  0.4883560000000  0.4283740000000  0.5767220000000 1.0
C      1  0.5828370000000  0.5405280000000  0.5257720000000 1.0
C      1  0.5257730000000  0.5828370000000  0.5405280000000 1.0
C      1  0.5405280000000  0.5257720000000  0.5828370000000 1.0
C      1  0.4171640000000  0.5405290000000  0.4742270000000 1.0
C      1  0.5828370000000  0.4594710000000  0.4742280000000 1.0
C      1  0.4171630000000  0.4594720000000  0.5257720000000 1.0
C      1  0.4742290000000  0.5828370000000  0.4594710000000 1.0
C      1  0.5257720000000  0.4171630000000  0.4594720000000 1.0
C      1  0.4742270000000  0.4171640000000  0.5405290000000 1.0
C      1  0.4594720000000  0.5257720000000  0.4171630000000 1.0
C      1  0.5405290000000  0.4742270000000  0.4171630000000 1.0
C      1  0.4594710000000  0.4742290000000  0.5828370000000 1.0
C      1  0.5828370000000  0.4594710000000  0.5257730000000 1.0
C      1  0.5257710000000  0.4171630000000  0.5405290000000 1.0
C      1  0.5405280000000  0.4742280000000  0.5828370000000 1.0
C      1  0.4171630000000  0.4594720000000  0.4742280000000 1.0
C      1  0.5828370000000  0.5405280000000  0.4742280000000 1.0
C      1  0.4171630000000  0.5405290000000  0.5257720000000 1.0
C      1  0.4742270000000  0.4171630000000  0.4594720000000 1.0
C      1  0.5257730000000  0.5828360000000  0.4594710000000 1.0
C      1  0.4742280000000  0.5828370000000  0.5405280000000 1.0
C      1  0.4594720000000  0.4742280000000  0.4171630000000 1.0
C      1  0.5405290000000  0.5257710000000  0.4171630000000 1.0
C      1  0.4594720000000  0.5257730000000  0.5828370000000 1.0
C      1  0.5803570000000  0.4721410000000  0.5309080000000 1.0
C      1  0.5309090000000  0.5803570000000  0.4721410000000 1.0
C      1  0.4721420000000  0.5309090000000  0.5803570000000 1.0
C      1  0.4196430000000  0.4721420000000  0.4690920000000 1.0
C      1  0.5803580000000  0.5278580000000  0.4690920000000 1.0
C      1  0.4196430000000  0.5278590000000  0.5309080000000 1.0
C      1  0.4690930000000  0.5803580000000  0.5278580000000 1.0
C      1  0.5309070000000  0.4196430000000  0.5278590000000 1.0
C      1  0.4690910000000  0.4196430000000  0.4721420000000 1.0
C      1  0.5278590000000  0.5309070000000  0.4196430000000 1.0
C      1  0.4721410000000  0.4690920000000  0.4196430000000 1.0
C      1  0.5278580000000  0.4690920000000  0.5803570000000 1.0
C      1  0.5803570000000  0.5278580000000  0.5309080000000 1.0
C      1  0.5309070000000  0.4196420000000  0.4721420000000 1.0
C      1  0.4721410000000  0.4690930000000  0.5803570000000 1.0
C      1  0.4196430000000  0.5278590000000  0.4690920000000 1.0
C      1  0.5803570000000  0.4721410000000  0.4690920000000 1.0
C      1  0.4196420000000  0.4721420000000  0.5309080000000 1.0
C      1  0.4690910000000  0.4196430000000  0.5278590000000 1.0
C      1  0.5309090000000  0.5803570000000  0.5278580000000 1.0
C      1  0.4690930000000  0.5803570000000  0.4721410000000 1.0
C      1  0.5278590000000  0.4690910000000  0.4196430000000 1.0
C      1  0.4721420000000  0.5309080000000  0.4196430000000 1.0
C      1  0.5278590000000  0.5309080000000  0.5803570000000 1.0
C      1  0.4695820000000  0.4238460000000  0.5642430000000 1.0
C      1  0.5642430000000  0.4695820000000  0.4238460000000 1.0
C      1  0.4238460000000  0.5642430000000  0.4695830000000 1.0
C      1  0.5304160000000  0.4238450000000  0.4357580000000 1.0
C      1  0.4695840000000  0.5761550000000  0.4357570000000 1.0
C      1  0.5304170000000  0.5761550000000  0.5642420000000 1.0
C      1  0.4357570000000  0.4695840000000  0.5761550000000 1.0
C      1  0.5642430000000  0.5304170000000  0.5761550000000 1.0
C      1  0.4357580000000  0.5304170000000  0.4238450000000 1.0
C      1  0.5761550000000  0.5642420000000  0.5304170000000 1.0
C      1  0.4238450000000  0.4357580000000  0.5304170000000 1.0
C      1  0.5761540000000  0.4357560000000  0.4695840000000 1.0
C      1  0.4695840000000  0.5761550000000  0.5642420000000 1.0
C      1  0.5642430000000  0.5304160000000  0.4238450000000 1.0
C      1  0.4238450000000  0.4357580000000  0.4695830000000 1.0
C      1  0.5304180000000  0.5761540000000  0.4357570000000 1.0
C      1  0.4695830000000  0.4238450000000  0.4357580000000 1.0
C      1  0.5304160000000  0.4238450000000  0.5642430000000 1.0
C      1  0.4357570000000  0.5304180000000  0.5761540000000 1.0
C      1  0.5642420000000  0.4695830000000  0.5761550000000 1.0
C      1  0.4357570000000  0.4695840000000  0.4238450000000 1.0
C      1  0.5761540000000  0.4357570000000  0.5304170000000 1.0
C      1  0.4238460000000  0.5642440000000  0.5304160000000 1.0
C      1  0.5761550000000  0.5642420000000  0.4695830000000 1.0
C      1  0.4397760000000  0.5416530000000  0.4928810000000 1.0
C      1  0.4928810000000  0.4397760000000  0.5416530000000 1.0
C      1  0.5416520000000  0.4928810000000  0.4397760000000 1.0
C      1  0.5602250000000  0.5416520000000  0.5071180000000 1.0
C      1  0.4397750000000  0.4583480000000  0.5071180000000 1.0
C      1  0.5602240000000  0.4583470000000  0.4928820000000 1.0
C      1  0.5071180000000  0.4397750000000  0.4583480000000 1.0
C      1  0.4928820000000  0.5602240000000  0.4583470000000 1.0
C      1  0.5071190000000  0.5602240000000  0.5416520000000 1.0
C      1  0.4583470000000  0.4928820000000  0.5602240000000 1.0
C      1  0.5416520000000  0.5071180000000  0.5602240000000 1.0
C      1  0.4583480000000  0.5071180000000  0.4397760000000 1.0
C      1  0.4397750000000  0.4583480000000  0.4928820000000 1.0
C      1  0.4928820000000  0.5602240000000  0.5416520000000 1.0
C      1  0.5416530000000  0.5071180000000  0.4397760000000 1.0
C      1  0.5602240000000  0.4583470000000  0.5071190000000 1.0
C      1  0.4397760000000  0.5416530000000  0.5071180000000 1.0
C      1  0.5602250000000  0.5416520000000  0.4928820000000 1.0
C      1  0.5071190000000  0.5602240000000  0.4583470000000 1.0
C      1  0.4928810000000  0.4397760000000  0.4583480000000 1.0
C      1  0.5071180000000  0.4397760000000  0.5416530000000 1.0
C      1  0.4583480000000  0.5071190000000  0.5602240000000 1.0
C      1  0.5416520000000  0.4928820000000  0.5602240000000 1.0
C      1  0.4583480000000  0.4928820000000  0.4397760000000 1.0
C      1  0.4179200000000  0.5000010000000  0.5755970000000 1.0
C      1  0.5755960000000  0.4179200000000  0.5000010000000 1.0
C      1  0.5000010000000  0.5755970000000  0.4179200000000 1.0
C      1  0.5820800000000  0.4999990000000  0.4244030000000 1.0
C      1  0.4179210000000  0.5000000000000  0.4244030000000 1.0
C      1  0.5820790000000  0.5000000000000  0.5755970000000 1.0
C      1  0.4244020000000  0.4179210000000  0.5000000000000 1.0
C      1  0.5755980000000  0.5820790000000  0.5000000000000 1.0
C      1  0.4244040000000  0.5820800000000  0.4999990000000 1.0
C      1  0.5000010000000  0.5755970000000  0.5820790000000 1.0
C      1  0.4999990000000  0.4244030000000  0.5820800000000 1.0
C      1  0.4999990000000  0.4244030000000  0.4179210000000 1.0
END
