TITL C-855863-9781-254 -53.2921103500707 1000000 -2501.33056077833 0 0 380 (Th) n - 1
REM
REM in /scratch/bkarasulu/Larger-Clusters
REM
REM
REM
REM
REM
REM ./C.cell (28d0ae7d613b82ecca3ae8fabf5dfced)
REM
REM compiler GCC version 9.2.1 20190827 (Red Hat 9.2.1-1)
REM options -cpp -mtune=generic -march=x86-64 -g -O0 -fpre-include=/usr/include/finclude/math-vector-fortran.h
REM seed 1326915033 1565815873 -781550443 65238838 457466902 1264969313 -1308468998 -215824598 -2130807115 2060095954 -1115164311 -1747735342 -229991542 -1511733680 -1545991846 366345436 683844402 620164160 -66863073 935541785 1809314187 -451730783 -231310821 1497672812 -1435665789 -1510350984 270613001 303510519 647048248 546122231 -655377210 -717355135 -303153078
REM
CELL 1.54180  100.00000  100.00000  100.00000   90.00000   90.00000   90.00000
LATT -1
SFAC C  
C      1  0.4337500000000  0.4882170000000  0.4288520000000 1.0
C      1  0.4291080000000  0.4331590000000  0.4885540000000 1.0
C      1  0.4888120000000  0.4285180000000  0.4334980000000 1.0
C      1  0.5669180000000  0.5112790000000  0.4288530000000 1.0
C      1  0.5669180000000  0.4882260000000  0.5713120000000 1.0
C      1  0.4337470000000  0.5112720000000  0.5713100000000 1.0
C      1  0.5715580000000  0.5663380000000  0.4885550000000 1.0
C      1  0.5715670000000  0.4331690000000  0.5116110000000 1.0
C      1  0.4291000000000  0.5663290000000  0.5116070000000 1.0
C      1  0.5118570000000  0.5709780000000  0.4334970000000 1.0
C      1  0.5118640000000  0.4285210000000  0.5666680000000 1.0
C      1  0.4888010000000  0.5709780000000  0.5666660000000 1.0
C      1  0.4337480000000  0.4882180000000  0.5713100000000 1.0
C      1  0.4291080000000  0.4331600000000  0.5116090000000 1.0
C      1  0.4888090000000  0.4285190000000  0.5666670000000 1.0
C      1  0.5669160000000  0.5112810000000  0.5713120000000 1.0
C      1  0.5669200000000  0.4882250000000  0.4288540000000 1.0
C      1  0.4337490000000  0.5112710000000  0.4288520000000 1.0
C      1  0.5715580000000  0.5663380000000  0.5116090000000 1.0
C      1  0.5715670000000  0.4331680000000  0.4885570000000 1.0
C      1  0.4291000000000  0.5663290000000  0.4885530000000 1.0
C      1  0.5118550000000  0.5709790000000  0.5666660000000 1.0
C      1  0.5118660000000  0.4285190000000  0.4334980000000 1.0
C      1  0.4888020000000  0.5709770000000  0.4334960000000 1.0
C      1  0.4775320000000  0.4003280000000  0.4807800000000 1.0
C      1  0.4810330000000  0.4769390000000  0.4006620000000 1.0
C      1  0.4009150000000  0.4804390000000  0.4772730000000 1.0
C      1  0.5231350000000  0.5991700000000  0.4807780000000 1.0
C      1  0.5231470000000  0.4003300000000  0.5193870000000 1.0
C      1  0.4775190000000  0.5991670000000  0.5193840000000 1.0
C      1  0.5196360000000  0.5225570000000  0.4006620000000 1.0
C      1  0.5196370000000  0.4769430000000  0.5995020000000 1.0
C      1  0.4810270000000  0.5225560000000  0.5995010000000 1.0
C      1  0.5997520000000  0.5190580000000  0.4772750000000 1.0
C      1  0.5997540000000  0.4804520000000  0.5228920000000 1.0
C      1  0.4009120000000  0.5190460000000  0.5228890000000 1.0
C      1  0.4775310000000  0.4003280000000  0.5193860000000 1.0
C      1  0.4810300000000  0.4769410000000  0.5995020000000 1.0
C      1  0.4009140000000  0.4804390000000  0.5228890000000 1.0
C      1  0.5231350000000  0.5991700000000  0.5193850000000 1.0
C      1  0.5231480000000  0.4003300000000  0.4807800000000 1.0
C      1  0.4775190000000  0.5991670000000  0.4807770000000 1.0
C      1  0.5196340000000  0.5225590000000  0.5995020000000 1.0
C      1  0.5196390000000  0.4769410000000  0.4006630000000 1.0
C      1  0.4810300000000  0.5225550000000  0.4006620000000 1.0
C      1  0.5997510000000  0.5190580000000  0.5228910000000 1.0
C      1  0.5997550000000  0.4804510000000  0.4772760000000 1.0
C      1  0.4009130000000  0.5190450000000  0.4772730000000 1.0
C      1  0.4443610000000  0.4677800000000  0.4402210000000 1.0
C      1  0.4404770000000  0.4437690000000  0.4681170000000 1.0
C      1  0.4683730000000  0.4398860000000  0.4441060000000 1.0
C      1  0.5563080000000  0.5317170000000  0.4402220000000 1.0
C      1  0.5563100000000  0.4677880000000  0.5599440000000 1.0
C      1  0.4443550000000  0.5317110000000  0.5599410000000 1.0
C      1  0.5601910000000  0.5557280000000  0.4681170000000 1.0
C      1  0.5601970000000  0.4437770000000  0.5320480000000 1.0
C      1  0.4404690000000  0.5557210000000  0.5320450000000 1.0
C      1  0.5322950000000  0.5596110000000  0.4441060000000 1.0
C      1  0.5323010000000  0.4398910000000  0.5560590000000 1.0
C      1  0.4683640000000  0.5596080000000  0.5560560000000 1.0
C      1  0.4443590000000  0.4677810000000  0.5599420000000 1.0
C      1  0.4404760000000  0.4437700000000  0.5320460000000 1.0
C      1  0.4683710000000  0.4398870000000  0.5560580000000 1.0
C      1  0.5563060000000  0.5317180000000  0.5599430000000 1.0
C      1  0.5563120000000  0.4677870000000  0.4402230000000 1.0
C      1  0.4443560000000  0.5317090000000  0.4402200000000 1.0
C      1  0.5601900000000  0.5557280000000  0.5320470000000 1.0
C      1  0.5601980000000  0.4437760000000  0.4681180000000 1.0
C      1  0.4404700000000  0.5557200000000  0.4681160000000 1.0
C      1  0.5322940000000  0.5596120000000  0.5560570000000 1.0
C      1  0.5323030000000  0.4398890000000  0.4441070000000 1.0
C      1  0.4683650000000  0.5596070000000  0.4441050000000 1.0
C      1  0.4460250000000  0.5077360000000  0.5955270000000 1.0
C      1  0.5957820000000  0.4454480000000  0.5080730000000 1.0
C      1  0.5083170000000  0.5951940000000  0.4457750000000 1.0
C      1  0.5546390000000  0.4917640000000  0.5955280000000 1.0
C      1  0.5546400000000  0.5077400000000  0.4046370000000 1.0
C      1  0.4460290000000  0.4917550000000  0.4046360000000 1.0
C      1  0.4048840000000  0.5540490000000  0.5080700000000 1.0
C      1  0.4048910000000  0.4454360000000  0.4920920000000 1.0
C      1  0.5957750000000  0.5540610000000  0.4920930000000 1.0
C      1  0.4923510000000  0.4043020000000  0.4457770000000 1.0
C      1  0.4923370000000  0.5951940000000  0.5543870000000 1.0
C      1  0.5083280000000  0.4043040000000  0.5543900000000 1.0
C      1  0.4460280000000  0.5077340000000  0.4046360000000 1.0
C      1  0.5957820000000  0.4454480000000  0.4920950000000 1.0
C      1  0.5083160000000  0.5951950000000  0.5543880000000 1.0
C      1  0.5546410000000  0.4917620000000  0.4046370000000 1.0
C      1  0.5546380000000  0.5077430000000  0.5955280000000 1.0
C      1  0.4460260000000  0.4917570000000  0.5955270000000 1.0
C      1  0.4048850000000  0.5540490000000  0.4920910000000 1.0
C      1  0.4048910000000  0.4454360000000  0.5080710000000 1.0
C      1  0.5957750000000  0.5540610000000  0.5080720000000 1.0
C      1  0.4923490000000  0.4043030000000  0.5543900000000 1.0
C      1  0.4923380000000  0.5951930000000  0.4457740000000 1.0
C      1  0.5083300000000  0.4043030000000  0.4457770000000 1.0
C      1  0.5981350000000  0.4701530000000  0.5156390000000 1.0
C      1  0.5158830000000  0.5975500000000  0.4704790000000 1.0
C      1  0.4707290000000  0.5153030000000  0.5978820000000 1.0
C      1  0.4025310000000  0.5293440000000  0.5156360000000 1.0
C      1  0.4025350000000  0.4701400000000  0.4845260000000 1.0
C      1  0.5981320000000  0.5293570000000  0.4845280000000 1.0
C      1  0.4847850000000  0.4019470000000  0.4704810000000 1.0
C      1  0.4847720000000  0.5975480000000  0.5296830000000 1.0
C      1  0.5158940000000  0.4019500000000  0.5296850000000 1.0
C      1  0.5299350000000  0.4841970000000  0.5978830000000 1.0
C      1  0.5299350000000  0.5153050000000  0.4022820000000 1.0
C      1  0.4707340000000  0.4841910000000  0.4022810000000 1.0
C      1  0.5981360000000  0.4701530000000  0.4845290000000 1.0
C      1  0.5158820000000  0.5975500000000  0.5296830000000 1.0
C      1  0.4707320000000  0.5153010000000  0.4022810000000 1.0
C      1  0.4025310000000  0.5293440000000  0.4845250000000 1.0
C      1  0.4025340000000  0.4701410000000  0.5156360000000 1.0
C      1  0.5981310000000  0.5293570000000  0.5156380000000 1.0
C      1  0.4847840000000  0.4019480000000  0.5296850000000 1.0
C      1  0.4847720000000  0.5975480000000  0.4704790000000 1.0
C      1  0.5158950000000  0.4019490000000  0.4704820000000 1.0
C      1  0.5299370000000  0.4841940000000  0.4022820000000 1.0
C      1  0.5299330000000  0.5153070000000  0.5978830000000 1.0
C      1  0.4707310000000  0.4841930000000  0.5978820000000 1.0
C      1  0.5076090000000  0.5963940000000  0.4600810000000 1.0
C      1  0.4603310000000  0.5070280000000  0.5967260000000 1.0
C      1  0.5969810000000  0.4597550000000  0.5073650000000 1.0
C      1  0.4930590000000  0.4031030000000  0.4600830000000 1.0
C      1  0.4930460000000  0.5963940000000  0.5400810000000 1.0
C      1  0.5076200000000  0.4031050000000  0.5400840000000 1.0
C      1  0.5403330000000  0.4924710000000  0.5967280000000 1.0
C      1  0.5403340000000  0.5070310000000  0.4034370000000 1.0
C      1  0.4603350000000  0.4924640000000  0.4034370000000 1.0
C      1  0.4036860000000  0.5397430000000  0.5073610000000 1.0
C      1  0.4036910000000  0.4597420000000  0.4928000000000 1.0
C      1  0.5969760000000  0.5397550000000  0.4928020000000 1.0
C      1  0.5076080000000  0.5963940000000  0.5400810000000 1.0
C      1  0.4603340000000  0.5070260000000  0.4034360000000 1.0
C      1  0.5969810000000  0.4597540000000  0.4928030000000 1.0
C      1  0.4930580000000  0.4031040000000  0.5400830000000 1.0
C      1  0.4930470000000  0.5963930000000  0.4600810000000 1.0
C      1  0.5076210000000  0.4031040000000  0.4600830000000 1.0
C      1  0.5403350000000  0.4924690000000  0.4034380000000 1.0
C      1  0.5403320000000  0.5070330000000  0.5967270000000 1.0
C      1  0.4603320000000  0.4924660000000  0.5967260000000 1.0
C      1  0.4036860000000  0.5397430000000  0.4927990000000 1.0
C      1  0.4036910000000  0.4597420000000  0.5073620000000 1.0
C      1  0.5969750000000  0.5397550000000  0.5073640000000 1.0
C      1  0.5572610000000  0.5166500000000  0.5355460000000 1.0
C      1  0.5357930000000  0.5566800000000  0.5169800000000 1.0
C      1  0.5172290000000  0.5352140000000  0.5570110000000 1.0
C      1  0.4434040000000  0.4828480000000  0.5355450000000 1.0
C      1  0.4434030000000  0.5166420000000  0.4646170000000 1.0
C      1  0.5572640000000  0.4828540000000  0.4646190000000 1.0
C      1  0.4648730000000  0.4428170000000  0.5169800000000 1.0
C      1  0.4648660000000  0.5566750000000  0.4831830000000 1.0
C      1  0.5358010000000  0.4428220000000  0.4831850000000 1.0
C      1  0.4834360000000  0.4642840000000  0.5570110000000 1.0
C      1  0.4834340000000  0.5352110000000  0.4431520000000 1.0
C      1  0.5172350000000  0.4642850000000  0.4431530000000 1.0
C      1  0.5572620000000  0.5166500000000  0.4646180000000 1.0
C      1  0.5357940000000  0.5566800000000  0.4831840000000 1.0
C      1  0.5172300000000  0.5352130000000  0.4431520000000 1.0
C      1  0.4434060000000  0.4828460000000  0.4646170000000 1.0
C      1  0.4434030000000  0.5166440000000  0.5355450000000 1.0
C      1  0.5572630000000  0.4828540000000  0.5355470000000 1.0
C      1  0.4648730000000  0.4428170000000  0.4831840000000 1.0
C      1  0.4648660000000  0.5566760000000  0.5169790000000 1.0
C      1  0.5358000000000  0.4428220000000  0.5169810000000 1.0
C      1  0.4834390000000  0.4642830000000  0.4431530000000 1.0
C      1  0.4834320000000  0.5352120000000  0.5570110000000 1.0
C      1  0.5172320000000  0.4642870000000  0.5570120000000 1.0
C      1  0.4684480000000  0.4491630000000  0.5064790000000 1.0
C      1  0.5067340000000  0.4678600000000  0.4494990000000 1.0
C      1  0.4497500000000  0.5061420000000  0.4681920000000 1.0
C      1  0.5322190000000  0.5503340000000  0.5064790000000 1.0
C      1  0.5322260000000  0.4491670000000  0.4936850000000 1.0
C      1  0.4684410000000  0.5503300000000  0.4936830000000 1.0
C      1  0.4939340000000  0.5316370000000  0.4494980000000 1.0
C      1  0.4939370000000  0.4678600000000  0.5506650000000 1.0
C      1  0.5067280000000  0.5316390000000  0.5506650000000 1.0
C      1  0.5509180000000  0.4933540000000  0.4681940000000 1.0
C      1  0.5509160000000  0.5061490000000  0.5319710000000 1.0
C      1  0.4497490000000  0.4933490000000  0.5319700000000 1.0
C      1  0.4684480000000  0.4491640000000  0.4936840000000 1.0
C      1  0.5067320000000  0.4678610000000  0.5506660000000 1.0
C      1  0.4497500000000  0.5061440000000  0.5319700000000 1.0
C      1  0.5322190000000  0.5503340000000  0.4936840000000 1.0
C      1  0.5322250000000  0.4491670000000  0.5064800000000 1.0
C      1  0.4684410000000  0.5503300000000  0.5064780000000 1.0
C      1  0.4939330000000  0.5316380000000  0.5506650000000 1.0
C      1  0.4939390000000  0.4678590000000  0.4494980000000 1.0
C      1  0.5067290000000  0.5316370000000  0.4494980000000 1.0
C      1  0.5509160000000  0.4933540000000  0.5319720000000 1.0
C      1  0.5509160000000  0.5061490000000  0.4681930000000 1.0
C      1  0.4497510000000  0.4933470000000  0.4681920000000 1.0
C      1  0.5391400000000  0.5654770000000  0.5256160000000 1.0
C      1  0.5258650000000  0.5385620000000  0.5658080000000 1.0
C      1  0.5660570000000  0.5252880000000  0.5388930000000 1.0
C      1  0.4615260000000  0.4340210000000  0.5256170000000 1.0
C      1  0.4615180000000  0.5654720000000  0.4745460000000 1.0
C      1  0.5391490000000  0.4340250000000  0.4745480000000 1.0
C      1  0.4748000000000  0.4609370000000  0.5658080000000 1.0
C      1  0.4747970000000  0.5385580000000  0.4343550000000 1.0
C      1  0.5258720000000  0.4609380000000  0.4343560000000 1.0
C      1  0.4346080000000  0.4742100000000  0.5388920000000 1.0
C      1  0.4346060000000  0.5252790000000  0.4612700000000 1.0
C      1  0.5660610000000  0.4742180000000  0.4612720000000 1.0
C      1  0.5391400000000  0.5654770000000  0.4745470000000 1.0
C      1  0.5258660000000  0.5385610000000  0.4343560000000 1.0
C      1  0.5660580000000  0.5252870000000  0.4612710000000 1.0
C      1  0.4615270000000  0.4340200000000  0.4745470000000 1.0
C      1  0.4615180000000  0.5654720000000  0.5256150000000 1.0
C      1  0.5391480000000  0.4340250000000  0.5256180000000 1.0
C      1  0.4748020000000  0.4609350000000  0.4343560000000 1.0
C      1  0.4747950000000  0.5385590000000  0.5658070000000 1.0
C      1  0.5258690000000  0.4609400000000  0.5658090000000 1.0
C      1  0.4346090000000  0.4742090000000  0.4612700000000 1.0
C      1  0.4346050000000  0.5252800000000  0.5388920000000 1.0
C      1  0.5660600000000  0.4742180000000  0.5388940000000 1.0
C      1  0.4934880000000  0.4357680000000  0.4687020000000 1.0
C      1  0.4689540000000  0.4928970000000  0.4361020000000 1.0
C      1  0.4363560000000  0.4683640000000  0.4932320000000 1.0
C      1  0.5071790000000  0.5637280000000  0.4687010000000 1.0
C      1  0.5071860000000  0.4357700000000  0.5314630000000 1.0
C      1  0.4934790000000  0.5637280000000  0.5314610000000 1.0
C      1  0.5317140000000  0.5065990000000  0.4361030000000 1.0
C      1  0.5317130000000  0.4929020000000  0.5640620000000 1.0
C      1  0.4689520000000  0.5065970000000  0.5640610000000 1.0
C      1  0.5643110000000  0.5311330000000  0.4932330000000 1.0
C      1  0.5643150000000  0.4683730000000  0.5069330000000 1.0
C      1  0.4363520000000  0.5311250000000  0.5069300000000 1.0
C      1  0.4934870000000  0.4357690000000  0.5314630000000 1.0
C      1  0.4689530000000  0.4928980000000  0.5640610000000 1.0
C      1  0.4363560000000  0.4683650000000  0.5069310000000 1.0
C      1  0.5071780000000  0.5637290000000  0.5314610000000 1.0
C      1  0.5071870000000  0.4357690000000  0.4687030000000 1.0
C      1  0.4934800000000  0.5637270000000  0.4687010000000 1.0
C      1  0.5317120000000  0.5066010000000  0.5640620000000 1.0
C      1  0.5317150000000  0.4929010000000  0.4361030000000 1.0
C      1  0.4689540000000  0.5065950000000  0.4361020000000 1.0
C      1  0.5643110000000  0.5311330000000  0.5069320000000 1.0
C      1  0.5643150000000  0.4683720000000  0.4932340000000 1.0
C      1  0.4363520000000  0.5311250000000  0.4932310000000 1.0
C      1  0.5643380000000  0.4925740000000  0.4150380000000 1.0
C      1  0.4152840000000  0.5637460000000  0.4929020000000 1.0
C      1  0.4931590000000  0.4147040000000  0.5640860000000 1.0
C      1  0.4363310000000  0.5069220000000  0.4150360000000 1.0
C      1  0.4363290000000  0.4925680000000  0.5851260000000 1.0
C      1  0.5643350000000  0.5069320000000  0.5851280000000 1.0
C      1  0.5853830000000  0.4357510000000  0.4929060000000 1.0
C      1  0.5853740000000  0.5637570000000  0.5072600000000 1.0
C      1  0.4152920000000  0.4357400000000  0.5072590000000 1.0
C      1  0.5075050000000  0.5847950000000  0.5640850000000 1.0
C      1  0.5075180000000  0.4147030000000  0.4360800000000 1.0
C      1  0.4931510000000  0.5847930000000  0.4360780000000 1.0
C      1  0.5643360000000  0.4925760000000  0.5851280000000 1.0
C      1  0.4152840000000  0.5637470000000  0.5072580000000 1.0
C      1  0.4931620000000  0.4147020000000  0.4360800000000 1.0
C      1  0.4363280000000  0.5069240000000  0.5851260000000 1.0
C      1  0.4363320000000  0.4925660000000  0.4150360000000 1.0
C      1  0.5643370000000  0.5069300000000  0.4150370000000 1.0
C      1  0.5853820000000  0.4357510000000  0.5072620000000 1.0
C      1  0.5853750000000  0.5637570000000  0.4929040000000 1.0
C      1  0.4152920000000  0.4357400000000  0.4929030000000 1.0
C      1  0.5075070000000  0.5847940000000  0.4360780000000 1.0
C      1  0.5075160000000  0.4147050000000  0.5640860000000 1.0
C      1  0.4931490000000  0.5847940000000  0.5640840000000 1.0
C      1  0.5646650000000  0.5553720000000  0.4818270000000 1.0
C      1  0.4820740000000  0.5640830000000  0.5557000000000 1.0
C      1  0.5559530000000  0.4814980000000  0.5644180000000 1.0
C      1  0.4360020000000  0.4441250000000  0.4818270000000 1.0
C      1  0.4359940000000  0.5553640000000  0.5183350000000 1.0
C      1  0.5646720000000  0.4441340000000  0.5183380000000 1.0
C      1  0.5185910000000  0.4354150000000  0.5557020000000 1.0
C      1  0.5185840000000  0.5640840000000  0.4444620000000 1.0
C      1  0.4820840000000  0.4354120000000  0.4444630000000 1.0
C      1  0.4447120000000  0.5180010000000  0.5644160000000 1.0
C      1  0.4447160000000  0.4814900000000  0.4357460000000 1.0
C      1  0.5559520000000  0.5180060000000  0.4357470000000 1.0
C      1  0.5646650000000  0.5553720000000  0.5183370000000 1.0
C      1  0.4820750000000  0.5640820000000  0.4444620000000 1.0
C      1  0.5559540000000  0.4814970000000  0.4357480000000 1.0
C      1  0.4360010000000  0.4441260000000  0.5183360000000 1.0
C      1  0.4359950000000  0.5553640000000  0.4818260000000 1.0
C      1  0.5646720000000  0.4441330000000  0.4818290000000 1.0
C      1  0.5185930000000  0.4354140000000  0.4444640000000 1.0
C      1  0.5185830000000  0.5640860000000  0.5557010000000 1.0
C      1  0.4820820000000  0.4354130000000  0.5557020000000 1.0
C      1  0.4447140000000  0.5179990000000  0.4357460000000 1.0
C      1  0.4447140000000  0.4814910000000  0.5644160000000 1.0
C      1  0.5559510000000  0.5180070000000  0.5644180000000 1.0
C      1  0.5653120000000  0.4644120000000  0.5481750000000 1.0
C      1  0.5484210000000  0.5647280000000  0.4647400000000 1.0
C      1  0.4649880000000  0.5478390000000  0.5650580000000 1.0
C      1  0.4353540000000  0.5350870000000  0.5481730000000 1.0
C      1  0.4353590000000  0.4644020000000  0.4519890000000 1.0
C      1  0.5653080000000  0.5350940000000  0.4519900000000 1.0
C      1  0.4522460000000  0.4347690000000  0.4647400000000 1.0
C      1  0.4522370000000  0.5647230000000  0.5354220000000 1.0
C      1  0.5484280000000  0.4347760000000  0.5354250000000 1.0
C      1  0.5356770000000  0.4516600000000  0.5650600000000 1.0
C      1  0.5356730000000  0.5478420000000  0.4351050000000 1.0
C      1  0.4649960000000  0.4516540000000  0.4351050000000 1.0
C      1  0.5653130000000  0.4644110000000  0.4519920000000 1.0
C      1  0.5484200000000  0.5647290000000  0.5354230000000 1.0
C      1  0.4649890000000  0.5478380000000  0.4351040000000 1.0
C      1  0.4353550000000  0.5350860000000  0.4519890000000 1.0
C      1  0.4353580000000  0.4644040000000  0.5481730000000 1.0
C      1  0.5653070000000  0.5350950000000  0.5481740000000 1.0
C      1  0.4522450000000  0.4347690000000  0.5354230000000 1.0
C      1  0.4522380000000  0.5647220000000  0.4647390000000 1.0
C      1  0.5484300000000  0.4347750000000  0.4647420000000 1.0
C      1  0.5356790000000  0.4516580000000  0.4351060000000 1.0
C      1  0.5356710000000  0.5478430000000  0.5650590000000 1.0
C      1  0.4649940000000  0.4516550000000  0.5650590000000 1.0
C      1  0.4540080000000  0.5073160000000  0.5621250000000 1.0
C      1  0.5623800000000  0.4534290000000  0.5076520000000 1.0
C      1  0.5078990000000  0.5617920000000  0.4537570000000 1.0
C      1  0.5466570000000  0.4921830000000  0.5621260000000 1.0
C      1  0.5466580000000  0.5073200000000  0.4380390000000 1.0
C      1  0.4540100000000  0.4921760000000  0.4380380000000 1.0
C      1  0.4382870000000  0.5460690000000  0.5076500000000 1.0
C      1  0.4382930000000  0.4534210000000  0.4925120000000 1.0
C      1  0.5623740000000  0.5460770000000  0.4925130000000 1.0
C      1  0.4927690000000  0.4377040000000  0.4537580000000 1.0
C      1  0.4927600000000  0.5617920000000  0.5464050000000 1.0
C      1  0.5079060000000  0.4377060000000  0.5464070000000 1.0
C      1  0.4540090000000  0.5073140000000  0.4380380000000 1.0
C      1  0.5623800000000  0.4534280000000  0.4925140000000 1.0
C      1  0.5078980000000  0.5617930000000  0.5464060000000 1.0
C      1  0.5466590000000  0.4921820000000  0.4380390000000 1.0
C      1  0.5466560000000  0.5073210000000  0.5621260000000 1.0
C      1  0.4540090000000  0.4921770000000  0.5621250000000 1.0
C      1  0.4382870000000  0.5460690000000  0.4925110000000 1.0
C      1  0.4382920000000  0.4534210000000  0.5076510000000 1.0
C      1  0.5623740000000  0.5460770000000  0.5076510000000 1.0
C      1  0.4927670000000  0.4377050000000  0.5464070000000 1.0
C      1  0.4927610000000  0.5617910000000  0.4537570000000 1.0
C      1  0.5079070000000  0.4377050000000  0.4537590000000 1.0
C      1  0.5629830000000  0.5487360000000  0.5440910000000 1.0
C      1  0.5443380000000  0.5624050000000  0.5490650000000 1.0
C      1  0.5493130000000  0.5437610000000  0.5627350000000 1.0
C      1  0.4376830000000  0.4507620000000  0.5440900000000 1.0
C      1  0.4376780000000  0.5487280000000  0.4560720000000 1.0
C      1  0.5629900000000  0.4507690000000  0.4560750000000 1.0
C      1  0.4563280000000  0.4370930000000  0.5490650000000 1.0
C      1  0.4563210000000  0.5623980000000  0.4510970000000 1.0
C      1  0.5443470000000  0.4370980000000  0.4511000000000 1.0
C      1  0.4513520000000  0.4557370000000  0.5627350000000 1.0
C      1  0.4513480000000  0.5437540000000  0.4374280000000 1.0
C      1  0.5493200000000  0.4557420000000  0.4374300000000 1.0
C      1  0.5629840000000  0.5487360000000  0.4560730000000 1.0
C      1  0.5443390000000  0.5624040000000  0.4510980000000 1.0
C      1  0.5493150000000  0.5437600000000  0.4374290000000 1.0
C      1  0.4376840000000  0.4507610000000  0.4560730000000 1.0
C      1  0.4376770000000  0.5487290000000  0.5440890000000 1.0
C      1  0.5629890000000  0.4507700000000  0.5440920000000 1.0
C      1  0.4563290000000  0.4370920000000  0.4510990000000 1.0
C      1  0.4563200000000  0.5623990000000  0.5490640000000 1.0
C      1  0.5443450000000  0.4370990000000  0.5490670000000 1.0
C      1  0.4513540000000  0.4557360000000  0.4374290000000 1.0
C      1  0.4513460000000  0.5437550000000  0.5627340000000 1.0
C      1  0.5493180000000  0.4557440000000  0.5627360000000 1.0
C      1  0.4287600000000  0.4997430000000  0.4349040000000 1.0
C      1  0.5003300000000  0.5649250000000  0.4285070000000 1.0
C      1  0.5003360000000  0.4345720000000  0.5716570000000 1.0
C      1  0.5719090000000  0.4997530000000  0.4349060000000 1.0
C      1  0.5719070000000  0.4997540000000  0.5652600000000 1.0
C      1  0.4287580000000  0.4997450000000  0.5652580000000 1.0
C      1  0.4351610000000  0.4281700000000  0.5000820000000 1.0
C      1  0.5003390000000  0.4345710000000  0.4285080000000 1.0
C      1  0.5655060000000  0.5713270000000  0.5000820000000 1.0
C      1  0.5655150000000  0.4281780000000  0.5000840000000 1.0
C      1  0.4351520000000  0.5713190000000  0.5000800000000 1.0
C      1  0.5003280000000  0.5649270000000  0.5716560000000 1.0
C      1  0.5542750000000  0.4458140000000  0.4461460000000 1.0
C      1  0.4463920000000  0.5536830000000  0.5540180000000 1.0
C      1  0.4463930000000  0.5536820000000  0.4461440000000 1.0
C      1  0.4463990000000  0.4458090000000  0.5540190000000 1.0
C      1  0.5542730000000  0.4458160000000  0.5540200000000 1.0
C      1  0.5542680000000  0.5536890000000  0.4461450000000 1.0
C      1  0.5542660000000  0.5536900000000  0.5540190000000 1.0
C      1  0.4464000000000  0.4458080000000  0.4461450000000 1.0
END
