TITL C-855863-9781-147 19.7605482461417 1000000 -3300.64249309624 0 0 480 (Th) n - 1
REM
REM in /scratch/bkarasulu/Larger-Clusters
REM
REM
REM
REM
REM
REM ./C.cell (28d0ae7d613b82ecca3ae8fabf5dfced)
REM
REM compiler GCC version 9.2.1 20190827 (Red Hat 9.2.1-1)
REM options -cpp -mtune=generic -march=x86-64 -g -O0 -fpre-include=/usr/include/finclude/math-vector-fortran.h
REM seed -1282140321 -1548550144 -872356576 -182664982 -1744648277 -856412387 141398865 443703235 -2029830251 -876524504 -576548790 -1207912775 -2111375876 -1092663084 439164914 -808714723 -1383349720 -1615185598 -1931118332 223488877 911280310 -1016087131 650247459 1879466062 -1568294885 -1352267942 -1932825830 -1224865590 -1807244135 -662566554 697405291 -1380654507 -2125914837
REM
CELL 1.54180  100.00000  100.00000  100.00000   90.00000   90.00000   90.00000
LATT -1
SFAC C  
C      1  0.5069760000000  0.5656920000000  0.5730420000000 1.0
C      1  0.5730410000000  0.5069770000000  0.5656920000000 1.0
C      1  0.5656910000000  0.5730420000000  0.5069780000000 1.0
C      1  0.4930230000000  0.5656920000000  0.4269590000000 1.0
C      1  0.5069780000000  0.4343080000000  0.4269580000000 1.0
C      1  0.4930230000000  0.4343080000000  0.5730410000000 1.0
C      1  0.4269590000000  0.5069770000000  0.4343080000000 1.0
C      1  0.5730420000000  0.4930230000000  0.4343080000000 1.0
C      1  0.4269580000000  0.4930220000000  0.5656910000000 1.0
C      1  0.4343070000000  0.5730410000000  0.4930220000000 1.0
C      1  0.5656930000000  0.4269590000000  0.4930230000000 1.0
C      1  0.4343090000000  0.4269580000000  0.5069770000000 1.0
C      1  0.5069770000000  0.4343080000000  0.5730420000000 1.0
C      1  0.5730410000000  0.4930230000000  0.5656920000000 1.0
C      1  0.5656920000000  0.4269590000000  0.5069770000000 1.0
C      1  0.4930240000000  0.4343080000000  0.4269580000000 1.0
C      1  0.5069770000000  0.5656920000000  0.4269590000000 1.0
C      1  0.4930220000000  0.5656920000000  0.5730420000000 1.0
C      1  0.4269590000000  0.4930230000000  0.4343080000000 1.0
C      1  0.5730420000000  0.5069780000000  0.4343090000000 1.0
C      1  0.4269580000000  0.5069770000000  0.5656920000000 1.0
C      1  0.4343090000000  0.4269580000000  0.4930220000000 1.0
C      1  0.5656920000000  0.5730420000000  0.4930230000000 1.0
C      1  0.4343080000000  0.5730410000000  0.5069770000000 1.0
C      1  0.4423130000000  0.5787810000000  0.4718260000000 1.0
C      1  0.4718270000000  0.4423130000000  0.5787800000000 1.0
C      1  0.5787810000000  0.4718270000000  0.4423140000000 1.0
C      1  0.5576860000000  0.5787810000000  0.5281740000000 1.0
C      1  0.4423140000000  0.4212190000000  0.5281730000000 1.0
C      1  0.5576870000000  0.4212200000000  0.4718270000000 1.0
C      1  0.5281740000000  0.4423140000000  0.4212190000000 1.0
C      1  0.4718270000000  0.5576860000000  0.4212190000000 1.0
C      1  0.5281720000000  0.5576860000000  0.5787810000000 1.0
C      1  0.4212190000000  0.4718260000000  0.5576860000000 1.0
C      1  0.5787800000000  0.5281730000000  0.5576870000000 1.0
C      1  0.4212190000000  0.5281730000000  0.4423130000000 1.0
C      1  0.4423140000000  0.4212190000000  0.4718260000000 1.0
C      1  0.4718260000000  0.5576860000000  0.5787810000000 1.0
C      1  0.5787810000000  0.5281740000000  0.4423140000000 1.0
C      1  0.5576870000000  0.4212200000000  0.5281730000000 1.0
C      1  0.4423130000000  0.5787800000000  0.5281730000000 1.0
C      1  0.5576860000000  0.5787810000000  0.4718270000000 1.0
C      1  0.5281730000000  0.5576870000000  0.4212200000000 1.0
C      1  0.4718280000000  0.4423140000000  0.4212190000000 1.0
C      1  0.5281730000000  0.4423140000000  0.5787810000000 1.0
C      1  0.4212190000000  0.5281730000000  0.5576860000000 1.0
C      1  0.5787810000000  0.4718270000000  0.5576870000000 1.0
C      1  0.4212200000000  0.4718260000000  0.4423130000000 1.0
C      1  0.5496780000000  0.4548920000000  0.4210130000000 1.0
C      1  0.4210130000000  0.5496770000000  0.4548920000000 1.0
C      1  0.4548930000000  0.4210130000000  0.5496770000000 1.0
C      1  0.4503230000000  0.4548920000000  0.5789870000000 1.0
C      1  0.5496770000000  0.5451080000000  0.5789870000000 1.0
C      1  0.4503220000000  0.5451080000000  0.4210130000000 1.0
C      1  0.5789860000000  0.5496780000000  0.5451080000000 1.0
C      1  0.4210130000000  0.4503220000000  0.5451070000000 1.0
C      1  0.5789880000000  0.4503230000000  0.4548920000000 1.0
C      1  0.5451090000000  0.4210130000000  0.4503230000000 1.0
C      1  0.4548920000000  0.5789870000000  0.4503220000000 1.0
C      1  0.5451070000000  0.5789870000000  0.5496780000000 1.0
C      1  0.5496770000000  0.5451080000000  0.4210130000000 1.0
C      1  0.4210130000000  0.4503220000000  0.4548920000000 1.0
C      1  0.4548920000000  0.5789870000000  0.5496770000000 1.0
C      1  0.4503220000000  0.5451080000000  0.5789870000000 1.0
C      1  0.5496780000000  0.4548920000000  0.5789870000000 1.0
C      1  0.4503230000000  0.4548920000000  0.4210130000000 1.0
C      1  0.5789870000000  0.4503230000000  0.5451080000000 1.0
C      1  0.4210120000000  0.5496770000000  0.5451070000000 1.0
C      1  0.5789870000000  0.5496780000000  0.4548930000000 1.0
C      1  0.5451080000000  0.5789870000000  0.4503230000000 1.0
C      1  0.4548930000000  0.4210130000000  0.4503220000000 1.0
C      1  0.5451080000000  0.4210130000000  0.5496780000000 1.0
C      1  0.5581390000000  0.5827270000000  0.5145080000000 1.0
C      1  0.5145070000000  0.5581390000000  0.5827270000000 1.0
C      1  0.5827260000000  0.5145080000000  0.5581400000000 1.0
C      1  0.4418600000000  0.5827260000000  0.4854920000000 1.0
C      1  0.5581400000000  0.4172740000000  0.4854930000000 1.0
C      1  0.4418610000000  0.4172730000000  0.5145070000000 1.0
C      1  0.4854920000000  0.5581390000000  0.4172730000000 1.0
C      1  0.5145090000000  0.4418610000000  0.4172730000000 1.0
C      1  0.4854920000000  0.4418600000000  0.5827270000000 1.0
C      1  0.4172730000000  0.5145070000000  0.4418600000000 1.0
C      1  0.5827270000000  0.4854930000000  0.4418610000000 1.0
C      1  0.4172730000000  0.4854920000000  0.5581390000000 1.0
C      1  0.5581400000000  0.4172740000000  0.5145080000000 1.0
C      1  0.5145080000000  0.4418610000000  0.5827270000000 1.0
C      1  0.5827270000000  0.4854930000000  0.5581400000000 1.0
C      1  0.4418610000000  0.4172730000000  0.4854920000000 1.0
C      1  0.5581390000000  0.5827270000000  0.4854930000000 1.0
C      1  0.4418600000000  0.5827260000000  0.5145070000000 1.0
C      1  0.4854930000000  0.4418610000000  0.4172730000000 1.0
C      1  0.5145080000000  0.5581400000000  0.4172730000000 1.0
C      1  0.4854910000000  0.5581390000000  0.5827270000000 1.0
C      1  0.4172740000000  0.4854920000000  0.4418600000000 1.0
C      1  0.5827270000000  0.5145080000000  0.4418610000000 1.0
C      1  0.4172730000000  0.5145070000000  0.5581390000000 1.0
C      1  0.5295410000000  0.3938550000000  0.5168240000000 1.0
C      1  0.5168240000000  0.5295400000000  0.3938550000000 1.0
C      1  0.3938550000000  0.5168230000000  0.5295390000000 1.0
C      1  0.4704610000000  0.3938550000000  0.4831760000000 1.0
C      1  0.5295390000000  0.6061450000000  0.4831770000000 1.0
C      1  0.4704590000000  0.6061450000000  0.5168230000000 1.0
C      1  0.4831760000000  0.5295400000000  0.6061450000000 1.0
C      1  0.5168230000000  0.4704600000000  0.6061450000000 1.0
C      1  0.4831770000000  0.4704600000000  0.3938550000000 1.0
C      1  0.6061450000000  0.5168240000000  0.4704610000000 1.0
C      1  0.3938550000000  0.4831760000000  0.4704600000000 1.0
C      1  0.6061450000000  0.4831770000000  0.5295400000000 1.0
C      1  0.5295390000000  0.6061450000000  0.5168240000000 1.0
C      1  0.5168240000000  0.4704600000000  0.3938550000000 1.0
C      1  0.3938550000000  0.4831760000000  0.5295390000000 1.0
C      1  0.4704600000000  0.6061450000000  0.4831760000000 1.0
C      1  0.5295410000000  0.3938550000000  0.4831760000000 1.0
C      1  0.4704610000000  0.3938550000000  0.5168230000000 1.0
C      1  0.4831760000000  0.4704600000000  0.6061450000000 1.0
C      1  0.5168230000000  0.5295400000000  0.6061450000000 1.0
C      1  0.4831770000000  0.5295400000000  0.3938550000000 1.0
C      1  0.6061450000000  0.4831770000000  0.4704610000000 1.0
C      1  0.3938550000000  0.5168230000000  0.4704600000000 1.0
C      1  0.6061450000000  0.5168240000000  0.5295400000000 1.0
C      1  0.5828540000000  0.4613530000000  0.5508630000000 1.0
C      1  0.5508620000000  0.5828540000000  0.4613530000000 1.0
C      1  0.4613510000000  0.5508620000000  0.5828540000000 1.0
C      1  0.4171470000000  0.4613520000000  0.4491370000000 1.0
C      1  0.5828540000000  0.5386480000000  0.4491380000000 1.0
C      1  0.4171460000000  0.5386470000000  0.5508620000000 1.0
C      1  0.4491370000000  0.5828540000000  0.5386470000000 1.0
C      1  0.5508630000000  0.4171460000000  0.5386480000000 1.0
C      1  0.4491380000000  0.4171460000000  0.4613520000000 1.0
C      1  0.5386480000000  0.5508630000000  0.4171460000000 1.0
C      1  0.4613530000000  0.4491380000000  0.4171460000000 1.0
C      1  0.5386480000000  0.4491380000000  0.5828540000000 1.0
C      1  0.5828530000000  0.5386480000000  0.5508630000000 1.0
C      1  0.5508630000000  0.4171460000000  0.4613520000000 1.0
C      1  0.4613520000000  0.4491380000000  0.5828540000000 1.0
C      1  0.4171460000000  0.5386470000000  0.4491370000000 1.0
C      1  0.5828550000000  0.4613530000000  0.4491380000000 1.0
C      1  0.4171460000000  0.4613520000000  0.5508620000000 1.0
C      1  0.4491380000000  0.4171460000000  0.5386470000000 1.0
C      1  0.5508610000000  0.5828540000000  0.5386480000000 1.0
C      1  0.4491370000000  0.5828540000000  0.4613520000000 1.0
C      1  0.5386490000000  0.4491380000000  0.4171460000000 1.0
C      1  0.4613520000000  0.5508620000000  0.4171460000000 1.0
C      1  0.5386470000000  0.5508620000000  0.5828540000000 1.0
C      1  0.4277810000000  0.4415240000000  0.5394490000000 1.0
C      1  0.5394510000000  0.4277810000000  0.4415240000000 1.0
C      1  0.4415240000000  0.5394500000000  0.4277800000000 1.0
C      1  0.5722200000000  0.4415240000000  0.4605500000000 1.0
C      1  0.4277800000000  0.5584760000000  0.4605500000000 1.0
C      1  0.5722190000000  0.5584760000000  0.5394500000000 1.0
C      1  0.4605500000000  0.4277810000000  0.5584750000000 1.0
C      1  0.5394490000000  0.5722190000000  0.5584760000000 1.0
C      1  0.4605500000000  0.5722190000000  0.4415240000000 1.0
C      1  0.5584750000000  0.5394500000000  0.5722200000000 1.0
C      1  0.4415240000000  0.4605500000000  0.5722190000000 1.0
C      1  0.5584770000000  0.4605500000000  0.4277810000000 1.0
C      1  0.4277800000000  0.5584750000000  0.5394500000000 1.0
C      1  0.5394500000000  0.5722200000000  0.4415250000000 1.0
C      1  0.4415250000000  0.4605500000000  0.4277810000000 1.0
C      1  0.5722190000000  0.5584760000000  0.4605500000000 1.0
C      1  0.4277810000000  0.4415240000000  0.4605500000000 1.0
C      1  0.5722190000000  0.4415250000000  0.5394500000000 1.0
C      1  0.4605490000000  0.5722190000000  0.5584760000000 1.0
C      1  0.5394500000000  0.4277810000000  0.5584760000000 1.0
C      1  0.4605510000000  0.4277810000000  0.4415240000000 1.0
C      1  0.5584760000000  0.4605500000000  0.5722200000000 1.0
C      1  0.4415230000000  0.5394500000000  0.5722190000000 1.0
C      1  0.5584760000000  0.5394500000000  0.4277810000000 1.0
C      1  0.4713110000000  0.5517170000000  0.4459080000000 1.0
C      1  0.4459080000000  0.4713120000000  0.5517170000000 1.0
C      1  0.5517180000000  0.4459080000000  0.4713120000000 1.0
C      1  0.5286880000000  0.5517170000000  0.5540920000000 1.0
C      1  0.4713120000000  0.4482830000000  0.5540920000000 1.0
C      1  0.5286890000000  0.4482830000000  0.4459080000000 1.0
C      1  0.5540920000000  0.4713120000000  0.4482830000000 1.0
C      1  0.4459080000000  0.5286880000000  0.4482830000000 1.0
C      1  0.5540910000000  0.5286880000000  0.5517170000000 1.0
C      1  0.4482830000000  0.4459080000000  0.5286880000000 1.0
C      1  0.5517160000000  0.5540920000000  0.5286890000000 1.0
C      1  0.4482820000000  0.5540920000000  0.4713110000000 1.0
C      1  0.4713120000000  0.4482830000000  0.4459080000000 1.0
C      1  0.4459080000000  0.5286880000000  0.5517170000000 1.0
C      1  0.5517170000000  0.5540920000000  0.4713120000000 1.0
C      1  0.5286890000000  0.4482830000000  0.5540920000000 1.0
C      1  0.4713110000000  0.5517170000000  0.5540920000000 1.0
C      1  0.5286880000000  0.5517170000000  0.4459080000000 1.0
C      1  0.5540920000000  0.5286890000000  0.4482830000000 1.0
C      1  0.4459090000000  0.4713120000000  0.4482830000000 1.0
C      1  0.5540920000000  0.4713120000000  0.5517180000000 1.0
C      1  0.4482830000000  0.5540910000000  0.5286880000000 1.0
C      1  0.5517170000000  0.4459090000000  0.5286890000000 1.0
C      1  0.4482830000000  0.4459080000000  0.4713110000000 1.0
C      1  0.4242920000000  0.4482330000000  0.4924710000000 1.0
C      1  0.4924720000000  0.4242920000000  0.4482340000000 1.0
C      1  0.4482340000000  0.4924710000000  0.4242920000000 1.0
C      1  0.5757080000000  0.4482350000000  0.5075290000000 1.0
C      1  0.4242920000000  0.5517650000000  0.5075280000000 1.0
C      1  0.5757080000000  0.5517670000000  0.4924720000000 1.0
C      1  0.5075290000000  0.4242920000000  0.5517660000000 1.0
C      1  0.4924710000000  0.5757080000000  0.5517660000000 1.0
C      1  0.5075280000000  0.5757080000000  0.4482340000000 1.0
C      1  0.5517660000000  0.4924720000000  0.5757080000000 1.0
C      1  0.4482340000000  0.5075280000000  0.5757080000000 1.0
C      1  0.5517660000000  0.5075290000000  0.4242930000000 1.0
C      1  0.4242920000000  0.5517660000000  0.4924710000000 1.0
C      1  0.4924710000000  0.5757080000000  0.4482340000000 1.0
C      1  0.4482340000000  0.5075280000000  0.4242920000000 1.0
C      1  0.5757070000000  0.5517660000000  0.5075290000000 1.0
C      1  0.4242920000000  0.4482340000000  0.5075280000000 1.0
C      1  0.5757080000000  0.4482350000000  0.4924720000000 1.0
C      1  0.5075280000000  0.5757080000000  0.5517660000000 1.0
C      1  0.4924720000000  0.4242920000000  0.5517660000000 1.0
C      1  0.5075290000000  0.4242920000000  0.4482340000000 1.0
C      1  0.5517660000000  0.5075280000000  0.5757080000000 1.0
C      1  0.4482340000000  0.4924710000000  0.5757070000000 1.0
C      1  0.5517660000000  0.4924720000000  0.4242930000000 1.0
C      1  0.5817610000000  0.5374360000000  0.4933180000000 1.0
C      1  0.4933170000000  0.5817610000000  0.5374360000000 1.0
C      1  0.5374350000000  0.4933180000000  0.5817610000000 1.0
C      1  0.4182390000000  0.5374350000000  0.5066820000000 1.0
C      1  0.5817610000000  0.4625650000000  0.5066820000000 1.0
C      1  0.4182390000000  0.4625640000000  0.4933170000000 1.0
C      1  0.5066820000000  0.5817610000000  0.4625650000000 1.0
C      1  0.4933190000000  0.4182390000000  0.4625640000000 1.0
C      1  0.5066830000000  0.4182390000000  0.5374360000000 1.0
C      1  0.4625650000000  0.4933180000000  0.4182390000000 1.0
C      1  0.5374360000000  0.5066820000000  0.4182390000000 1.0
C      1  0.4625640000000  0.5066820000000  0.5817610000000 1.0
C      1  0.5817610000000  0.4625650000000  0.4933180000000 1.0
C      1  0.4933180000000  0.4182390000000  0.5374360000000 1.0
C      1  0.5374350000000  0.5066820000000  0.5817610000000 1.0
C      1  0.4182390000000  0.4625640000000  0.5066820000000 1.0
C      1  0.5817610000000  0.5374360000000  0.5066830000000 1.0
C      1  0.4182390000000  0.5374350000000  0.4933170000000 1.0
C      1  0.5066830000000  0.4182390000000  0.4625640000000 1.0
C      1  0.4933170000000  0.5817610000000  0.4625640000000 1.0
C      1  0.5066810000000  0.5817610000000  0.5374360000000 1.0
C      1  0.4625650000000  0.5066820000000  0.4182390000000 1.0
C      1  0.5374360000000  0.4933180000000  0.4182390000000 1.0
C      1  0.4625640000000  0.4933180000000  0.5817610000000 1.0
C      1  0.5407440000000  0.5555500000000  0.5225620000000 1.0
C      1  0.5225610000000  0.5407440000000  0.5555500000000 1.0
C      1  0.5555490000000  0.5225620000000  0.5407450000000 1.0
C      1  0.4592550000000  0.5555500000000  0.4774380000000 1.0
C      1  0.5407450000000  0.4444510000000  0.4774380000000 1.0
C      1  0.4592560000000  0.4444500000000  0.5225620000000 1.0
C      1  0.4774380000000  0.5407440000000  0.4444500000000 1.0
C      1  0.5225630000000  0.4592550000000  0.4444500000000 1.0
C      1  0.4774380000000  0.4592550000000  0.5555500000000 1.0
C      1  0.4444500000000  0.5225620000000  0.4592550000000 1.0
C      1  0.5555500000000  0.4774380000000  0.4592560000000 1.0
C      1  0.4444500000000  0.4774380000000  0.5407440000000 1.0
C      1  0.5407450000000  0.4444510000000  0.5225620000000 1.0
C      1  0.5225620000000  0.4592550000000  0.5555500000000 1.0
C      1  0.5555500000000  0.4774380000000  0.5407450000000 1.0
C      1  0.4592560000000  0.4444500000000  0.4774380000000 1.0
C      1  0.5407440000000  0.5555500000000  0.4774380000000 1.0
C      1  0.4592550000000  0.5555490000000  0.5225620000000 1.0
C      1  0.4774390000000  0.4592560000000  0.4444500000000 1.0
C      1  0.5225620000000  0.5407450000000  0.4444510000000 1.0
C      1  0.4774370000000  0.5407440000000  0.5555500000000 1.0
C      1  0.4444510000000  0.4774380000000  0.4592550000000 1.0
C      1  0.5555500000000  0.5225620000000  0.4592560000000 1.0
C      1  0.4444500000000  0.5225620000000  0.5407440000000 1.0
C      1  0.5073980000000  0.3867120000000  0.4925340000000 1.0
C      1  0.4925350000000  0.5073980000000  0.3867120000000 1.0
C      1  0.3867120000000  0.4925340000000  0.5073970000000 1.0
C      1  0.4926030000000  0.3867120000000  0.5074650000000 1.0
C      1  0.5073970000000  0.6132880000000  0.5074660000000 1.0
C      1  0.4926020000000  0.6132880000000  0.4925350000000 1.0
C      1  0.5074650000000  0.5073970000000  0.6132880000000 1.0
C      1  0.4925340000000  0.4926020000000  0.6132880000000 1.0
C      1  0.5074660000000  0.4926030000000  0.3867120000000 1.0
C      1  0.6132880000000  0.4925350000000  0.4926030000000 1.0
C      1  0.3867120000000  0.5074650000000  0.4926020000000 1.0
C      1  0.6132880000000  0.5074660000000  0.5073980000000 1.0
C      1  0.5073970000000  0.6132880000000  0.4925350000000 1.0
C      1  0.4925350000000  0.4926030000000  0.3867120000000 1.0
C      1  0.3867120000000  0.5074650000000  0.5073970000000 1.0
C      1  0.4926020000000  0.6132880000000  0.5074650000000 1.0
C      1  0.5073980000000  0.3867120000000  0.5074650000000 1.0
C      1  0.4926030000000  0.3867120000000  0.4925340000000 1.0
C      1  0.5074650000000  0.4926020000000  0.6132880000000 1.0
C      1  0.4925340000000  0.5073970000000  0.6132880000000 1.0
C      1  0.5074660000000  0.5073980000000  0.3867120000000 1.0
C      1  0.6132880000000  0.5074660000000  0.4926030000000 1.0
C      1  0.3867120000000  0.4925340000000  0.4926020000000 1.0
C      1  0.6132880000000  0.4925350000000  0.5073980000000 1.0
C      1  0.5620720000000  0.5145340000000  0.4296210000000 1.0
C      1  0.4296200000000  0.5620710000000  0.5145330000000 1.0
C      1  0.5145340000000  0.4296200000000  0.5620720000000 1.0
C      1  0.4379270000000  0.5145330000000  0.5703800000000 1.0
C      1  0.5620720000000  0.4854670000000  0.5703800000000 1.0
C      1  0.4379290000000  0.4854660000000  0.4296200000000 1.0
C      1  0.5703800000000  0.5620720000000  0.4854670000000 1.0
C      1  0.4296210000000  0.4379280000000  0.4854660000000 1.0
C      1  0.5703800000000  0.4379290000000  0.5145340000000 1.0
C      1  0.4854680000000  0.4296200000000  0.4379280000000 1.0
C      1  0.5145330000000  0.5703800000000  0.4379280000000 1.0
C      1  0.4854660000000  0.5703800000000  0.5620720000000 1.0
C      1  0.5620720000000  0.4854670000000  0.4296210000000 1.0
C      1  0.4296210000000  0.4379280000000  0.5145330000000 1.0
C      1  0.5145330000000  0.5703800000000  0.5620720000000 1.0
C      1  0.4379280000000  0.4854660000000  0.5703790000000 1.0
C      1  0.5620710000000  0.5145330000000  0.5703800000000 1.0
C      1  0.4379280000000  0.5145330000000  0.4296200000000 1.0
C      1  0.5703800000000  0.4379280000000  0.4854670000000 1.0
C      1  0.4296200000000  0.5620720000000  0.4854660000000 1.0
C      1  0.5703790000000  0.5620720000000  0.5145340000000 1.0
C      1  0.4854660000000  0.5703800000000  0.4379280000000 1.0
C      1  0.5145340000000  0.4296200000000  0.4379280000000 1.0
C      1  0.4854670000000  0.4296200000000  0.5620720000000 1.0
C      1  0.4640490000000  0.5949160000000  0.4872350000000 1.0
C      1  0.4872350000000  0.4640500000000  0.5949160000000 1.0
C      1  0.5949170000000  0.4872360000000  0.4640500000000 1.0
C      1  0.5359490000000  0.5949170000000  0.5127650000000 1.0
C      1  0.4640510000000  0.4050830000000  0.5127640000000 1.0
C      1  0.5359510000000  0.4050840000000  0.4872350000000 1.0
C      1  0.5127660000000  0.4640500000000  0.4050840000000 1.0
C      1  0.4872350000000  0.5359500000000  0.4050840000000 1.0
C      1  0.5127640000000  0.5359500000000  0.5949170000000 1.0
C      1  0.4050840000000  0.4872350000000  0.5359490000000 1.0
C      1  0.5949160000000  0.5127650000000  0.5359510000000 1.0
C      1  0.4050840000000  0.5127640000000  0.4640490000000 1.0
C      1  0.4640510000000  0.4050840000000  0.4872350000000 1.0
C      1  0.4872350000000  0.5359500000000  0.5949160000000 1.0
C      1  0.5949160000000  0.5127650000000  0.4640500000000 1.0
C      1  0.5359510000000  0.4050840000000  0.5127650000000 1.0
C      1  0.4640490000000  0.5949160000000  0.5127640000000 1.0
C      1  0.5359490000000  0.5949170000000  0.4872360000000 1.0
C      1  0.5127650000000  0.5359500000000  0.4050840000000 1.0
C      1  0.4872360000000  0.4640500000000  0.4050840000000 1.0
C      1  0.5127650000000  0.4640500000000  0.5949160000000 1.0
C      1  0.4050830000000  0.5127640000000  0.5359500000000 1.0
C      1  0.5949160000000  0.4872360000000  0.5359510000000 1.0
C      1  0.4050840000000  0.4872350000000  0.4640490000000 1.0
C      1  0.5614880000000  0.5167160000000  0.4690100000000 1.0
C      1  0.4690090000000  0.5614880000000  0.5167150000000 1.0
C      1  0.5167150000000  0.4690090000000  0.5614880000000 1.0
C      1  0.4385120000000  0.5167140000000  0.5309910000000 1.0
C      1  0.5614880000000  0.4832850000000  0.5309920000000 1.0
C      1  0.4385120000000  0.4832850000000  0.4690090000000 1.0
C      1  0.5309910000000  0.5614880000000  0.4832850000000 1.0
C      1  0.4690090000000  0.4385120000000  0.4832850000000 1.0
C      1  0.5309910000000  0.4385120000000  0.5167150000000 1.0
C      1  0.4832850000000  0.4690090000000  0.4385120000000 1.0
C      1  0.5167150000000  0.5309910000000  0.4385120000000 1.0
C      1  0.4832850000000  0.5309910000000  0.5614880000000 1.0
C      1  0.5614880000000  0.4832860000000  0.4690090000000 1.0
C      1  0.4690090000000  0.4385120000000  0.5167150000000 1.0
C      1  0.5167150000000  0.5309910000000  0.5614880000000 1.0
C      1  0.4385120000000  0.4832840000000  0.5309900000000 1.0
C      1  0.5614880000000  0.5167160000000  0.5309910000000 1.0
C      1  0.4385120000000  0.5167150000000  0.4690080000000 1.0
C      1  0.5309920000000  0.4385120000000  0.4832850000000 1.0
C      1  0.4690080000000  0.5614870000000  0.4832850000000 1.0
C      1  0.5309900000000  0.5614880000000  0.5167150000000 1.0
C      1  0.4832850000000  0.5309910000000  0.4385120000000 1.0
C      1  0.5167150000000  0.4690090000000  0.4385120000000 1.0
C      1  0.4832850000000  0.4690090000000  0.5614880000000 1.0
C      1  0.4151830000000  0.4927400000000  0.5264570000000 1.0
C      1  0.5264580000000  0.4151830000000  0.4927400000000 1.0
C      1  0.4927400000000  0.5264570000000  0.4151830000000 1.0
C      1  0.5848170000000  0.4927410000000  0.4735430000000 1.0
C      1  0.4151830000000  0.5072600000000  0.4735420000000 1.0
C      1  0.5848170000000  0.5072600000000  0.5264580000000 1.0
C      1  0.4735440000000  0.4151830000000  0.5072600000000 1.0
C      1  0.5264560000000  0.5848170000000  0.5072600000000 1.0
C      1  0.4735420000000  0.5848170000000  0.4927400000000 1.0
C      1  0.5072590000000  0.5264570000000  0.5848170000000 1.0
C      1  0.4927400000000  0.4735430000000  0.5848170000000 1.0
C      1  0.5072610000000  0.4735430000000  0.4151830000000 1.0
C      1  0.4151830000000  0.5072600000000  0.5264570000000 1.0
C      1  0.5264570000000  0.5848170000000  0.4927400000000 1.0
C      1  0.4927410000000  0.4735430000000  0.4151830000000 1.0
C      1  0.5848170000000  0.5072600000000  0.4735430000000 1.0
C      1  0.4151830000000  0.4927400000000  0.4735430000000 1.0
C      1  0.5848170000000  0.4927400000000  0.5264580000000 1.0
C      1  0.4735420000000  0.5848170000000  0.5072600000000 1.0
C      1  0.5264580000000  0.4151830000000  0.5072600000000 1.0
C      1  0.4735440000000  0.4151830000000  0.4927400000000 1.0
C      1  0.5072600000000  0.4735430000000  0.5848170000000 1.0
C      1  0.4927390000000  0.5264570000000  0.5848170000000 1.0
C      1  0.5072600000000  0.5264570000000  0.4151830000000 1.0
C      1  0.5635860000000  0.4376720000000  0.5287190000000 1.0
C      1  0.5287190000000  0.5635860000000  0.4376720000000 1.0
C      1  0.4376710000000  0.5287190000000  0.5635860000000 1.0
C      1  0.4364140000000  0.4376710000000  0.4712800000000 1.0
C      1  0.5635860000000  0.5623290000000  0.4712810000000 1.0
C      1  0.4364140000000  0.5623280000000  0.5287190000000 1.0
C      1  0.4712800000000  0.5635860000000  0.5623290000000 1.0
C      1  0.5287190000000  0.4364140000000  0.5623290000000 1.0
C      1  0.4712820000000  0.4364140000000  0.4376710000000 1.0
C      1  0.5623290000000  0.5287200000000  0.4364150000000 1.0
C      1  0.4376720000000  0.4712810000000  0.4364140000000 1.0
C      1  0.5623290000000  0.4712810000000  0.5635860000000 1.0
C      1  0.5635850000000  0.5623290000000  0.5287200000000 1.0
C      1  0.5287200000000  0.4364140000000  0.4376710000000 1.0
C      1  0.4376710000000  0.4712810000000  0.5635860000000 1.0
C      1  0.4364140000000  0.5623280000000  0.4712800000000 1.0
C      1  0.5635870000000  0.4376720000000  0.4712810000000 1.0
C      1  0.4364140000000  0.4376710000000  0.5287190000000 1.0
C      1  0.4712810000000  0.4364140000000  0.5623280000000 1.0
C      1  0.5287180000000  0.5635860000000  0.5623290000000 1.0
C      1  0.4712810000000  0.5635860000000  0.4376710000000 1.0
C      1  0.5623290000000  0.4712810000000  0.4364140000000 1.0
C      1  0.4376710000000  0.5287190000000  0.4364140000000 1.0
C      1  0.5623280000000  0.5287190000000  0.5635860000000 1.0
C      1  0.5703970000000  0.4923030000000  0.4733340000000 1.0
C      1  0.4733330000000  0.5703970000000  0.4923030000000 1.0
C      1  0.4923030000000  0.4733340000000  0.5703970000000 1.0
C      1  0.4296020000000  0.4923020000000  0.5266660000000 1.0
C      1  0.5703970000000  0.5076980000000  0.5266670000000 1.0
C      1  0.4296030000000  0.5076970000000  0.4733330000000 1.0
C      1  0.5266660000000  0.5703980000000  0.5076970000000 1.0
C      1  0.4733340000000  0.4296020000000  0.5076970000000 1.0
C      1  0.5266670000000  0.4296030000000  0.4923030000000 1.0
C      1  0.5076970000000  0.4733340000000  0.4296030000000 1.0
C      1  0.4923030000000  0.5266670000000  0.4296030000000 1.0
C      1  0.5076970000000  0.5266660000000  0.5703980000000 1.0
C      1  0.5703980000000  0.5076980000000  0.4733340000000 1.0
C      1  0.4733340000000  0.4296030000000  0.4923030000000 1.0
C      1  0.4923020000000  0.5266660000000  0.5703970000000 1.0
C      1  0.4296030000000  0.5076970000000  0.5266660000000 1.0
C      1  0.5703970000000  0.4923030000000  0.5266670000000 1.0
C      1  0.4296030000000  0.4923020000000  0.4733330000000 1.0
C      1  0.5266670000000  0.4296030000000  0.5076970000000 1.0
C      1  0.4733330000000  0.5703970000000  0.5076970000000 1.0
C      1  0.5266660000000  0.5703980000000  0.4923030000000 1.0
C      1  0.5076970000000  0.5266670000000  0.4296030000000 1.0
C      1  0.4923030000000  0.4733340000000  0.4296030000000 1.0
C      1  0.5076970000000  0.4733330000000  0.5703970000000 1.0
C      1  0.5072280000000  0.4506940000000  0.4089290000000 1.0
C      1  0.4089290000000  0.5072270000000  0.4506930000000 1.0
C      1  0.4506940000000  0.4089290000000  0.5072270000000 1.0
C      1  0.4927730000000  0.4506930000000  0.5910710000000 1.0
C      1  0.5072260000000  0.5493060000000  0.5910710000000 1.0
C      1  0.4927730000000  0.5493070000000  0.4089290000000 1.0
C      1  0.5910710000000  0.5072270000000  0.5493070000000 1.0
C      1  0.4089290000000  0.4927730000000  0.5493060000000 1.0
C      1  0.5910710000000  0.4927730000000  0.4506940000000 1.0
C      1  0.5493070000000  0.4089290000000  0.4927730000000 1.0
C      1  0.4506930000000  0.5910710000000  0.4927730000000 1.0
C      1  0.5493060000000  0.5910710000000  0.5072270000000 1.0
C      1  0.5072270000000  0.5493070000000  0.4089290000000 1.0
C      1  0.4089290000000  0.4927730000000  0.4506930000000 1.0
C      1  0.4506930000000  0.5910710000000  0.5072270000000 1.0
C      1  0.4927720000000  0.5493060000000  0.5910710000000 1.0
C      1  0.5072270000000  0.4506930000000  0.5910710000000 1.0
C      1  0.4927740000000  0.4506940000000  0.4089290000000 1.0
C      1  0.5910710000000  0.4927730000000  0.5493070000000 1.0
C      1  0.4089290000000  0.5072270000000  0.5493060000000 1.0
C      1  0.5910710000000  0.5072270000000  0.4506940000000 1.0
C      1  0.5493060000000  0.5910710000000  0.4927730000000 1.0
C      1  0.4506940000000  0.4089290000000  0.4927730000000 1.0
C      1  0.5493070000000  0.4089290000000  0.5072270000000 1.0
C      1  0.6114010000000  0.5155990000000  0.4820030000000 1.0
C      1  0.4820020000000  0.6114010000000  0.5155980000000 1.0
C      1  0.5155980000000  0.4820030000000  0.6114010000000 1.0
C      1  0.3885990000000  0.5155980000000  0.5179970000000 1.0
C      1  0.6114010000000  0.4844020000000  0.5179980000000 1.0
C      1  0.3885990000000  0.4844010000000  0.4820020000000 1.0
C      1  0.5179970000000  0.6114010000000  0.4844020000000 1.0
C      1  0.4820040000000  0.3885990000000  0.4844010000000 1.0
C      1  0.5179980000000  0.3885990000000  0.5155980000000 1.0
C      1  0.4844030000000  0.4820030000000  0.3885990000000 1.0
C      1  0.5155990000000  0.5179980000000  0.3885990000000 1.0
C      1  0.4844010000000  0.5179970000000  0.6114010000000 1.0
C      1  0.6114010000000  0.4844020000000  0.4820030000000 1.0
C      1  0.4820030000000  0.3885990000000  0.5155980000000 1.0
C      1  0.5155980000000  0.5179970000000  0.6114010000000 1.0
C      1  0.3885990000000  0.4844010000000  0.5179970000000 1.0
C      1  0.6114010000000  0.5155990000000  0.5179980000000 1.0
C      1  0.3885990000000  0.5155980000000  0.4820020000000 1.0
C      1  0.5179980000000  0.3885990000000  0.4844020000000 1.0
C      1  0.4820020000000  0.6114010000000  0.4844020000000 1.0
C      1  0.5179970000000  0.6114010000000  0.5155980000000 1.0
C      1  0.4844020000000  0.5179970000000  0.3885990000000 1.0
C      1  0.5155990000000  0.4820030000000  0.3885990000000 1.0
C      1  0.4844010000000  0.4820020000000  0.6114010000000 1.0
END
