TITL C-855863-9781-31 17.97660791766 1000000 -3282.58480469257 0 0 480 (C1) n - 1
REM
REM in /scratch/bkarasulu/Larger-Clusters
REM
REM
REM
REM
REM
REM ./C.cell (28d0ae7d613b82ecca3ae8fabf5dfced)
REM
REM compiler GCC version 9.2.1 20190827 (Red Hat 9.2.1-1)
REM options -cpp -mtune=generic -march=x86-64 -g -O0 -fpre-include=/usr/include/finclude/math-vector-fortran.h
REM seed 1510174262 1134712934 -1017478847 -1884782120 1196868976 553049502 1581351346 103729446 305997387 -22317499 1609835806 67224295 393429468 -945414539 -861087303 615754667 -1929706545 -1579678516 -454047180 -1022834538 1997587375 1785208449 -401257661 -668444718 1689426014 -1417574739 1916313658 1531055563 547839110 1403188474 -215487693 -776160731 -172026406
REM
CELL 1.54180  100.00000  100.00000  100.00000   90.00000   90.00000   90.00000
LATT -1
SFAC C  
C      1  0.4552280000000  0.4258460000000  0.4813710000000 1.0
C      1  0.4804220000000  0.4547810000000  0.4297250000000 1.0
C      1  0.4274930000000  0.4773920000000  0.4615430000000 1.0
C      1  0.4532100000000  0.5694340000000  0.5181630000000 1.0
C      1  0.5478220000000  0.5701650000000  0.4812520000000 1.0
C      1  0.5416630000000  0.4306710000000  0.5202240000000 1.0
C      1  0.4772950000000  0.5403830000000  0.5704030000000 1.0
C      1  0.5221160000000  0.5475560000000  0.4261060000000 1.0
C      1  0.5186010000000  0.4554860000000  0.5718530000000 1.0
C      1  0.4240200000000  0.5184960000000  0.5473270000000 1.0
C      1  0.5732250000000  0.5213480000000  0.4545930000000 1.0
C      1  0.5733560000000  0.4798170000000  0.5439590000000 1.0
C      1  0.5442250000000  0.4301890000000  0.4800610000000 1.0
C      1  0.5216950000000  0.4570210000000  0.4267800000000 1.0
C      1  0.5718900000000  0.4809070000000  0.4524620000000 1.0
C      1  0.5448850000000  0.5721730000000  0.5207390000000 1.0
C      1  0.4562750000000  0.5725290000000  0.4790600000000 1.0
C      1  0.4524590000000  0.4261140000000  0.5212360000000 1.0
C      1  0.5186470000000  0.5466350000000  0.5721420000000 1.0
C      1  0.4829710000000  0.5444240000000  0.4302050000000 1.0
C      1  0.4771370000000  0.4607900000000  0.5705000000000 1.0
C      1  0.5727240000000  0.5198700000000  0.5462250000000 1.0
C      1  0.4315790000000  0.5177280000000  0.4555450000000 1.0
C      1  0.4256690000000  0.4773660000000  0.5421240000000 1.0
C      1  0.5482310000000  0.4848410000000  0.4936800000000 1.0
C      1  0.4928580000000  0.5516820000000  0.4808910000000 1.0
C      1  0.4800200000000  0.4938030000000  0.5509850000000 1.0
C      1  0.5461440000000  0.5136890000000  0.5040890000000 1.0
C      1  0.4571070000000  0.5143970000000  0.4949060000000 1.0
C      1  0.4460780000000  0.4814920000000  0.5092880000000 1.0
C      1  0.4934480000000  0.4486520000000  0.5174490000000 1.0
C      1  0.5029340000000  0.4628930000000  0.4858410000000 1.0
C      1  0.5082700000000  0.5416510000000  0.5148820000000 1.0
C      1  0.4858810000000  0.5106920000000  0.4599890000000 1.0
C      1  0.5178260000000  0.5114630000000  0.5462790000000 1.0
C      1  0.5158500000000  0.4923600000000  0.4496030000000 1.0
C      1  0.4459850000000  0.4817460000000  0.4950370000000 1.0
C      1  0.5054240000000  0.5474780000000  0.4853090000000 1.0
C      1  0.5133080000000  0.4845870000000  0.5398970000000 1.0
C      1  0.4575260000000  0.5140650000000  0.5098610000000 1.0
C      1  0.5484570000000  0.5146930000000  0.4896230000000 1.0
C      1  0.5526480000000  0.4812140000000  0.5063950000000 1.0
C      1  0.5081520000000  0.4488260000000  0.5167630000000 1.0
C      1  0.4900310000000  0.4564750000000  0.4838490000000 1.0
C      1  0.4955960000000  0.5355060000000  0.5098410000000 1.0
C      1  0.5176610000000  0.5062940000000  0.4529560000000 1.0
C      1  0.4807150000000  0.5077320000000  0.5510100000000 1.0
C      1  0.4870230000000  0.4962410000000  0.4617060000000 1.0
C      1  0.5545080000000  0.4411940000000  0.4588880000000 1.0
C      1  0.4616910000000  0.5546190000000  0.4395970000000 1.0
C      1  0.4375790000000  0.4596390000000  0.5545580000000 1.0
C      1  0.5556680000000  0.5612430000000  0.5405320000000 1.0
C      1  0.4463030000000  0.5601170000000  0.4595780000000 1.0
C      1  0.4433210000000  0.4389040000000  0.5411590000000 1.0
C      1  0.4590070000000  0.4472700000000  0.5594920000000 1.0
C      1  0.5407720000000  0.4458700000000  0.4379430000000 1.0
C      1  0.5399570000000  0.5555990000000  0.5599860000000 1.0
C      1  0.4420310000000  0.5393430000000  0.4454060000000 1.0
C      1  0.5600010000000  0.5406750000000  0.5549880000000 1.0
C      1  0.5610570000000  0.4600620000000  0.4429240000000 1.0
C      1  0.4450350000000  0.4385990000000  0.4622850000000 1.0
C      1  0.5428810000000  0.5566480000000  0.4382970000000 1.0
C      1  0.5597720000000  0.4608750000000  0.5542310000000 1.0
C      1  0.4431440000000  0.5582700000000  0.5393340000000 1.0
C      1  0.5574360000000  0.5609110000000  0.4589980000000 1.0
C      1  0.5537100000000  0.4413120000000  0.5391930000000 1.0
C      1  0.5394940000000  0.4464440000000  0.5597040000000 1.0
C      1  0.4598970000000  0.4453440000000  0.4424620000000 1.0
C      1  0.4581370000000  0.5523930000000  0.5591130000000 1.0
C      1  0.5629260000000  0.5414420000000  0.4432830000000 1.0
C      1  0.4369800000000  0.5390050000000  0.5551600000000 1.0
C      1  0.4402730000000  0.4598890000000  0.4493090000000 1.0
C      1  0.5302730000000  0.4153070000000  0.4516950000000 1.0
C      1  0.4483590000000  0.5320010000000  0.4111790000000 1.0
C      1  0.4119390000000  0.4518890000000  0.5294260000000 1.0
C      1  0.5289520000000  0.5859800000000  0.5438850000000 1.0
C      1  0.4724370000000  0.5855430000000  0.4547230000000 1.0
C      1  0.4741750000000  0.4172420000000  0.5467320000000 1.0
C      1  0.4509020000000  0.4734770000000  0.5846250000000 1.0
C      1  0.5464080000000  0.4716490000000  0.4125120000000 1.0
C      1  0.5436600000000  0.5285510000000  0.5853340000000 1.0
C      1  0.4163310000000  0.5453540000000  0.4727490000000 1.0
C      1  0.5856600000000  0.5460300000000  0.5272560000000 1.0
C      1  0.5863390000000  0.4534780000000  0.4698500000000 1.0
C      1  0.4722040000000  0.4143740000000  0.4564970000000 1.0
C      1  0.5475340000000  0.5279310000000  0.4134010000000 1.0
C      1  0.5845370000000  0.4553720000000  0.5272350000000 1.0
C      1  0.4705030000000  0.5830530000000  0.5445760000000 1.0
C      1  0.5303150000000  0.5865140000000  0.4543250000000 1.0
C      1  0.5287700000000  0.4149100000000  0.5457480000000 1.0
C      1  0.5445000000000  0.4748980000000  0.5841330000000 1.0
C      1  0.4534650000000  0.4738700000000  0.4187340000000 1.0
C      1  0.4522090000000  0.5284870000000  0.5860390000000 1.0
C      1  0.5874340000000  0.5451690000000  0.4702620000000 1.0
C      1  0.4122020000000  0.5446420000000  0.5272320000000 1.0
C      1  0.4133150000000  0.4511730000000  0.4726730000000 1.0
C      1  0.4906270000000  0.5345030000000  0.5239510000000 1.0
C      1  0.5251660000000  0.4813730000000  0.5369560000000 1.0
C      1  0.5517410000000  0.5285070000000  0.4898960000000 1.0
C      1  0.4932790000000  0.4539170000000  0.4699010000000 1.0
C      1  0.5171260000000  0.4412770000000  0.5257680000000 1.0
C      1  0.5184040000000  0.5518360000000  0.4803500000000 1.0
C      1  0.5318520000000  0.5047480000000  0.4494040000000 1.0
C      1  0.4720360000000  0.5158510000000  0.5593280000000 1.0
C      1  0.4723410000000  0.4948520000000  0.4600130000000 1.0
C      1  0.5588430000000  0.4683300000000  0.5062280000000 1.0
C      1  0.4383770000000  0.4720650000000  0.4873000000000 1.0
C      1  0.4529830000000  0.5276640000000  0.5098770000000 1.0
C      1  0.5028630000000  0.5420520000000  0.5284270000000 1.0
C      1  0.4710650000000  0.4857930000000  0.5593120000000 1.0
C      1  0.4547090000000  0.5285490000000  0.4947990000000 1.0
C      1  0.5058380000000  0.4616190000000  0.4712550000000 1.0
C      1  0.4881980000000  0.4428910000000  0.5298240000000 1.0
C      1  0.4934440000000  0.5597480000000  0.4690480000000 1.0
C      1  0.4718690000000  0.5095650000000  0.4570050000000 1.0
C      1  0.5297770000000  0.5095120000000  0.5439150000000 1.0
C      1  0.5293380000000  0.4903800000000  0.4456180000000 1.0
C      1  0.4374840000000  0.4724190000000  0.5167940000000 1.0
C      1  0.5517790000000  0.4787980000000  0.4815430000000 1.0
C      1  0.5483540000000  0.5285350000000  0.5044150000000 1.0
C      1  0.5404310000000  0.5013580000000  0.5399410000000 1.0
C      1  0.5611500000000  0.5338340000000  0.5073680000000 1.0
C      1  0.4934060000000  0.5524480000000  0.5317040000000 1.0
C      1  0.5367510000000  0.4938180000000  0.4338010000000 1.0
C      1  0.4616500000000  0.4944690000000  0.5647700000000 1.0
C      1  0.4682430000000  0.5048570000000  0.4437510000000 1.0
C      1  0.5601160000000  0.4675500000000  0.4816030000000 1.0
C      1  0.4328670000000  0.4622440000000  0.5085160000000 1.0
C      1  0.4414400000000  0.5328550000000  0.4932360000000 1.0
C      1  0.5135590000000  0.4505220000000  0.4669930000000 1.0
C      1  0.4968540000000  0.4358870000000  0.5367200000000 1.0
C      1  0.5053400000000  0.5639780000000  0.4644510000000 1.0
C      1  0.4622520000000  0.5075430000000  0.5646700000000 1.0
C      1  0.4397970000000  0.5311700000000  0.5067790000000 1.0
C      1  0.4821060000000  0.5438630000000  0.5300170000000 1.0
C      1  0.4688600000000  0.4914310000000  0.4465230000000 1.0
C      1  0.5355210000000  0.4889770000000  0.5372860000000 1.0
C      1  0.5369760000000  0.5071460000000  0.4364040000000 1.0
C      1  0.4336590000000  0.4618490000000  0.4955030000000 1.0
C      1  0.5623940000000  0.4633040000000  0.4943830000000 1.0
C      1  0.5639980000000  0.5347150000000  0.4939440000000 1.0
C      1  0.5021840000000  0.4427450000000  0.4667680000000 1.0
C      1  0.5098280000000  0.4343520000000  0.5354330000000 1.0
C      1  0.5175220000000  0.5613440000000  0.4701810000000 1.0
C      1  0.5380580000000  0.4196430000000  0.5133140000000 1.0
C      1  0.5201950000000  0.5399310000000  0.4151740000000 1.0
C      1  0.4123680000000  0.5156680000000  0.5411520000000 1.0
C      1  0.5395450000000  0.5805400000000  0.4832150000000 1.0
C      1  0.4612990000000  0.5796980000000  0.5149340000000 1.0
C      1  0.4586320000000  0.4150070000000  0.4890470000000 1.0
C      1  0.5158620000000  0.4618020000000  0.5835290000000 1.0
C      1  0.4833280000000  0.4637960000000  0.4199330000000 1.0
C      1  0.4865440000000  0.5387100000000  0.5800910000000 1.0
C      1  0.4180740000000  0.4868120000000  0.4638860000000 1.0
C      1  0.5826980000000  0.4894020000000  0.5404010000000 1.0
C      1  0.5831870000000  0.5133410000000  0.4596900000000 1.0
C      1  0.4596030000000  0.4150470000000  0.5184080000000 1.0
C      1  0.4931200000000  0.5417850000000  0.4209860000000 1.0
C      1  0.5840170000000  0.5179320000000  0.5389840000000 1.0
C      1  0.4602490000000  0.5832090000000  0.4865990000000 1.0
C      1  0.5402090000000  0.5815660000000  0.5119230000000 1.0
C      1  0.5361390000000  0.4200530000000  0.4842120000000 1.0
C      1  0.4871290000000  0.4629800000000  0.5793930000000 1.0
C      1  0.5128970000000  0.4621640000000  0.4177970000000 1.0
C      1  0.5151960000000  0.5404870000000  0.5837210000000 1.0
C      1  0.5814290000000  0.4837980000000  0.4615080000000 1.0
C      1  0.4165850000000  0.4870680000000  0.5399300000000 1.0
C      1  0.4209960000000  0.5161300000000  0.4635810000000 1.0
C      1  0.5665230000000  0.4366470000000  0.5182590000000 1.0
C      1  0.5224550000000  0.5706720000000  0.4336810000000 1.0
C      1  0.4318970000000  0.5195230000000  0.5703840000000 1.0
C      1  0.5710260000000  0.5646240000000  0.4799470000000 1.0
C      1  0.4294830000000  0.5644730000000  0.5191350000000 1.0
C      1  0.4309970000000  0.4322860000000  0.4821330000000 1.0
C      1  0.5193230000000  0.4323420000000  0.5645130000000 1.0
C      1  0.4800960000000  0.4315770000000  0.4362980000000 1.0
C      1  0.4790240000000  0.5650970000000  0.5639920000000 1.0
C      1  0.4333270000000  0.4800840000000  0.4365820000000 1.0
C      1  0.5659200000000  0.4808190000000  0.5679200000000 1.0
C      1  0.5678630000000  0.5204920000000  0.4301000000000 1.0
C      1  0.4287900000000  0.4320260000000  0.5218980000000 1.0
C      1  0.4824230000000  0.5686930000000  0.4355350000000 1.0
C      1  0.5641570000000  0.5203230000000  0.5689430000000 1.0
C      1  0.4320480000000  0.5664900000000  0.4792510000000 1.0
C      1  0.5695230000000  0.5668690000000  0.5202220000000 1.0
C      1  0.5680990000000  0.4350920000000  0.4786590000000 1.0
C      1  0.4801020000000  0.4357510000000  0.5657780000000 1.0
C      1  0.5197830000000  0.4328870000000  0.4331770000000 1.0
C      1  0.5187520000000  0.5688030000000  0.5627410000000 1.0
C      1  0.5667210000000  0.4800420000000  0.4286890000000 1.0
C      1  0.4306940000000  0.4797110000000  0.5676490000000 1.0
C      1  0.4365950000000  0.5188730000000  0.4321390000000 1.0
C      1  0.5466760000000  0.5038540000000  0.5125200000000 1.0
C      1  0.5185470000000  0.5474870000000  0.5075370000000 1.0
C      1  0.5045940000000  0.5071060000000  0.5461570000000 1.0
C      1  0.5483230000000  0.4922660000000  0.4823530000000 1.0
C      1  0.4505630000000  0.4914170000000  0.5186860000000 1.0
C      1  0.4514770000000  0.5053830000000  0.4874650000000 1.0
C      1  0.5117580000000  0.4601380000000  0.4950700000000 1.0
C      1  0.4861670000000  0.4508620000000  0.5065880000000 1.0
C      1  0.4829940000000  0.5478670000000  0.4902410000000 1.0
C      1  0.5054280000000  0.4833210000000  0.4496880000000 1.0
C      1  0.4910770000000  0.4861390000000  0.5475280000000 1.0
C      1  0.4959790000000  0.5198420000000  0.4562030000000 1.0
C      1  0.4571010000000  0.5032800000000  0.5175040000000 1.0
C      1  0.4868650000000  0.5407330000000  0.5014050000000 1.0
C      1  0.4927940000000  0.5144150000000  0.5485860000000 1.0
C      1  0.4496600000000  0.4921830000000  0.4858880000000 1.0
C      1  0.5509310000000  0.4913460000000  0.5161560000000 1.0
C      1  0.5497470000000  0.5058840000000  0.4791750000000 1.0
C      1  0.4815460000000  0.4512130000000  0.4938910000000 1.0
C      1  0.5159590000000  0.4541640000000  0.5064390000000 1.0
C      1  0.5159910000000  0.5475430000000  0.4935130000000 1.0
C      1  0.4929190000000  0.4878740000000  0.4530930000000 1.0
C      1  0.5031490000000  0.4924630000000  0.5439990000000 1.0
C      1  0.5089860000000  0.5155200000000  0.4558320000000 1.0
C      1  0.5070600000000  0.5751420000000  0.5020530000000 1.0
C      1  0.5112910000000  0.5086440000000  0.5781190000000 1.0
C      1  0.5769820000000  0.5124090000000  0.5071530000000 1.0
C      1  0.5044230000000  0.4226040000000  0.4968480000000 1.0
C      1  0.4909110000000  0.4207560000000  0.5125130000000 1.0
C      1  0.4911470000000  0.5771190000000  0.4888720000000 1.0
C      1  0.5117270000000  0.4926590000000  0.4228120000000 1.0
C      1  0.4970340000000  0.4937030000000  0.5754410000000 1.0
C      1  0.4988650000000  0.5092000000000  0.4241970000000 1.0
C      1  0.5756310000000  0.4964480000000  0.4934540000000 1.0
C      1  0.4222600000000  0.4968670000000  0.5100640000000 1.0
C      1  0.4237880000000  0.5121270000000  0.4955830000000 1.0
C      1  0.4929640000000  0.5762690000000  0.5031690000000 1.0
C      1  0.4968810000000  0.5084210000000  0.5758260000000 1.0
C      1  0.4218370000000  0.5115440000000  0.5110810000000 1.0
C      1  0.4902080000000  0.4218360000000  0.4981590000000 1.0
C      1  0.5060790000000  0.4220690000000  0.5112000000000 1.0
C      1  0.5066160000000  0.5753210000000  0.4872690000000 1.0
C      1  0.4972160000000  0.4948660000000  0.4241930000000 1.0
C      1  0.5114480000000  0.4937360000000  0.5776250000000 1.0
C      1  0.5131760000000  0.5080210000000  0.4225690000000 1.0
C      1  0.4230910000000  0.4972850000000  0.4955520000000 1.0
C      1  0.5766130000000  0.4978360000000  0.5077750000000 1.0
C      1  0.5763650000000  0.5113030000000  0.4916660000000 1.0
C      1  0.4859670000000  0.5836040000000  0.5128610000000 1.0
C      1  0.5147820000000  0.4860510000000  0.5893110000000 1.0
C      1  0.5883350000000  0.5136380000000  0.4838150000000 1.0
C      1  0.4824270000000  0.4129580000000  0.4901700000000 1.0
C      1  0.5148760000000  0.4111630000000  0.5143420000000 1.0
C      1  0.5149310000000  0.5866320000000  0.4836570000000 1.0
C      1  0.5171030000000  0.5152660000000  0.4104380000000 1.0
C      1  0.4884590000000  0.5155810000000  0.5852800000000 1.0
C      1  0.4874250000000  0.4883660000000  0.4163020000000 1.0
C      1  0.5851840000000  0.4900610000000  0.5160870000000 1.0
C      1  0.4140300000000  0.4897070000000  0.4873600000000 1.0
C      1  0.4087340000000  0.5147860000000  0.5169860000000 1.0
C      1  0.5156780000000  0.5824800000000  0.5105870000000 1.0
C      1  0.4885530000000  0.4860980000000  0.5845230000000 1.0
C      1  0.4127300000000  0.5160030000000  0.4870750000000 1.0
C      1  0.5120090000000  0.4147430000000  0.4880050000000 1.0
C      1  0.4837930000000  0.4092180000000  0.5169190000000 1.0
C      1  0.4841300000000  0.5892370000000  0.4863400000000 1.0
C      1  0.4912400000000  0.5180750000000  0.4159030000000 1.0
C      1  0.5146140000000  0.5162550000000  0.5898030000000 1.0
C      1  0.5137090000000  0.4849020000000  0.4108270000000 1.0
C      1  0.4123630000000  0.4887350000000  0.5166330000000 1.0
C      1  0.5837520000000  0.4872220000000  0.4861780000000 1.0
C      1  0.5891860000000  0.5159880000000  0.5144840000000 1.0
C      1  0.4515720000000  0.5366590000000  0.4242140000000 1.0
C      1  0.4223630000000  0.4494820000000  0.5382080000000 1.0
C      1  0.5345390000000  0.4286000000000  0.4527600000000 1.0
C      1  0.4496100000000  0.4645800000000  0.5740580000000 1.0
C      1  0.5507320000000  0.4621260000000  0.4217500000000 1.0
C      1  0.5472960000000  0.5368130000000  0.5745440000000 1.0
C      1  0.4270140000000  0.5476810000000  0.4639310000000 1.0
C      1  0.5747680000000  0.5482220000000  0.5360370000000 1.0
C      1  0.5745940000000  0.4526830000000  0.4624410000000 1.0
C      1  0.5372550000000  0.5758500000000  0.5486680000000 1.0
C      1  0.4650120000000  0.5742070000000  0.4519480000000 1.0
C      1  0.4642370000000  0.4271640000000  0.5485620000000 1.0
C      1  0.5500980000000  0.5370300000000  0.4240250000000 1.0
C      1  0.5733280000000  0.4533020000000  0.5351470000000 1.0
C      1  0.4637670000000  0.4249720000000  0.4534710000000 1.0
C      1  0.5473360000000  0.4657040000000  0.5737430000000 1.0
C      1  0.4522490000000  0.4653620000000  0.4298130000000 1.0
C      1  0.4489330000000  0.5364320000000  0.5752860000000 1.0
C      1  0.5779620000000  0.5499570000000  0.4613320000000 1.0
C      1  0.4227580000000  0.5473760000000  0.5359110000000 1.0
C      1  0.4263600000000  0.4520170000000  0.4677240000000 1.0
C      1  0.4629280000000  0.5713540000000  0.5463640000000 1.0
C      1  0.5388990000000  0.5759620000000  0.4511120000000 1.0
C      1  0.5368700000000  0.4257060000000  0.5488230000000 1.0
C      1  0.5128760000000  0.5292910000000  0.4119140000000 1.0
C      1  0.4085180000000  0.5088620000000  0.5303390000000 1.0
C      1  0.5273310000000  0.4141440000000  0.5071320000000 1.0
C      1  0.5090990000000  0.4725360000000  0.5876380000000 1.0
C      1  0.4907140000000  0.4740330000000  0.4152130000000 1.0
C      1  0.4940310000000  0.5291570000000  0.5857520000000 1.0
C      1  0.4143960000000  0.4950900000000  0.4738780000000 1.0
C      1  0.5865240000000  0.4962290000000  0.5294280000000 1.0
C      1  0.5865670000000  0.5066120000000  0.4709090000000 1.0
C      1  0.5284600000000  0.5846400000000  0.4897880000000 1.0
C      1  0.4719610000000  0.5847720000000  0.5083780000000 1.0
C      1  0.4693670000000  0.4114130000000  0.4964920000000 1.0
C      1  0.4984980000000  0.5309070000000  0.4152620000000 1.0
C      1  0.5882310000000  0.5110210000000  0.5283920000000 1.0
C      1  0.4700500000000  0.4103650000000  0.5114350000000 1.0
C      1  0.4944890000000  0.4726500000000  0.5848870000000 1.0
C      1  0.5059610000000  0.4725480000000  0.4130250000000 1.0
C      1  0.5086300000000  0.5297450000000  0.5882200000000 1.0
C      1  0.5848470000000  0.4913410000000  0.4721340000000 1.0
C      1  0.4111680000000  0.4943720000000  0.5301370000000 1.0
C      1  0.4149550000000  0.5098850000000  0.4737570000000 1.0
C      1  0.4712150000000  0.5872950000000  0.4931810000000 1.0
C      1  0.5290440000000  0.5838660000000  0.5046470000000 1.0
C      1  0.5260910000000  0.4154160000000  0.4920200000000 1.0
C      1  0.4952980000000  0.5891230000000  0.5223750000000 1.0
C      1  0.5183530000000  0.4946430000000  0.5997210000000 1.0
C      1  0.5988500000000  0.5174850000000  0.4922630000000 1.0
C      1  0.4908090000000  0.4065630000000  0.4808760000000 1.0
C      1  0.5066890000000  0.4007840000000  0.5189240000000 1.0
C      1  0.5061160000000  0.5968830000000  0.4812060000000 1.0
C      1  0.5198960000000  0.5059510000000  0.4004090000000 1.0
C      1  0.4801230000000  0.5070240000000  0.5921560000000 1.0
C      1  0.4803850000000  0.4980340000000  0.4086390000000 1.0
C      1  0.5908300000000  0.4804650000000  0.5079230000000 1.0
C      1  0.4060850000000  0.4812680000000  0.4949630000000 1.0
C      1  0.3999250000000  0.5195370000000  0.5074500000000 1.0
C      1  0.5078420000000  0.5883200000000  0.5207530000000 1.0
C      1  0.4799200000000  0.4941380000000  0.5917690000000 1.0
C      1  0.4021990000000  0.5205810000000  0.4949050000000 1.0
C      1  0.5034880000000  0.4068200000000  0.4797100000000 1.0
C      1  0.4938690000000  0.4000170000000  0.5201040000000 1.0
C      1  0.4934850000000  0.5989710000000  0.4822570000000 1.0
C      1  0.4814110000000  0.5109240000000  0.4087940000000 1.0
C      1  0.5182480000000  0.5075130000000  0.6001080000000 1.0
C      1  0.5182500000000  0.4931570000000  0.4005170000000 1.0
C      1  0.4054530000000  0.4806450000000  0.5078200000000 1.0
C      1  0.5901180000000  0.4784100000000  0.4953360000000 1.0
C      1  0.5989850000000  0.5187530000000  0.5050280000000 1.0
C      1  0.5256540000000  0.4224630000000  0.5567990000000 1.0
C      1  0.5589230000000  0.5264390000000  0.4210500000000 1.0
C      1  0.4200910000000  0.5557620000000  0.5249400000000 1.0
C      1  0.5285480000000  0.5797260000000  0.4424330000000 1.0
C      1  0.4737360000000  0.5740820000000  0.5546310000000 1.0
C      1  0.4751000000000  0.4223900000000  0.4454620000000 1.0
C      1  0.5563830000000  0.4757450000000  0.5769850000000 1.0
C      1  0.4426920000000  0.4751790000000  0.4273910000000 1.0
C      1  0.4401010000000  0.5261120000000  0.5796960000000 1.0
C      1  0.4222710000000  0.4419090000000  0.4768420000000 1.0
C      1  0.5761510000000  0.4449200000000  0.5241290000000 1.0
C      1  0.5806760000000  0.5571010000000  0.4732070000000 1.0
C      1  0.4752850000000  0.4260500000000  0.5570320000000 1.0
C      1  0.4441290000000  0.5248870000000  0.4222110000000 1.0
C      1  0.5782950000000  0.5575840000000  0.5261360000000 1.0
C      1  0.4760180000000  0.5778330000000  0.4438790000000 1.0
C      1  0.5250900000000  0.5786790000000  0.5551900000000 1.0
C      1  0.5247960000000  0.4247680000000  0.4434200000000 1.0
C      1  0.4392410000000  0.4739150000000  0.5772610000000 1.0
C      1  0.5586520000000  0.4736240000000  0.4191890000000 1.0
C      1  0.5554140000000  0.5260910000000  0.5781860000000 1.0
C      1  0.5779040000000  0.4428250000000  0.4720870000000 1.0
C      1  0.4188500000000  0.4399200000000  0.5280800000000 1.0
C      1  0.4232000000000  0.5572470000000  0.4733790000000 1.0
C      1  0.5621000000000  0.5208680000000  0.4634490000000 1.0
C      1  0.4557080000000  0.5576280000000  0.5100530000000 1.0
C      1  0.5093510000000  0.4608290000000  0.5630900000000 1.0
C      1  0.5646050000000  0.4799110000000  0.5327470000000 1.0
C      1  0.4375500000000  0.4767820000000  0.4734630000000 1.0
C      1  0.4331040000000  0.5091700000000  0.5425480000000 1.0
C      1  0.4648790000000  0.4363530000000  0.4821180000000 1.0
C      1  0.5305170000000  0.4413300000000  0.5199890000000 1.0
C      1  0.5463100000000  0.5588640000000  0.4905030000000 1.0
C      1  0.5134920000000  0.5427910000000  0.4358480000000 1.0
C      1  0.4788090000000  0.5283790000000  0.5614490000000 1.0
C      1  0.4898070000000  0.4556250000000  0.4403450000000 1.0
C      1  0.4418370000000  0.5076160000000  0.4575500000000 1.0
C      1  0.5350860000000  0.5618860000000  0.5206870000000 1.0
C      1  0.4772740000000  0.4727100000000  0.5608130000000 1.0
C      1  0.4355970000000  0.4776740000000  0.5302200000000 1.0
C      1  0.5600760000000  0.4891160000000  0.4533190000000 1.0
C      1  0.5641160000000  0.5103610000000  0.5417280000000 1.0
C      1  0.5409310000000  0.4419570000000  0.4871620000000 1.0
C      1  0.4574570000000  0.4372440000000  0.5139060000000 1.0
C      1  0.4660520000000  0.5622980000000  0.4793400000000 1.0
C      1  0.4837450000000  0.5356350000000  0.4410650000000 1.0
C      1  0.5098940000000  0.5409650000000  0.5631170000000 1.0
C      1  0.5197600000000  0.4683110000000  0.4352610000000 1.0
C      1  0.4912160000000  0.5277510000000  0.5533670000000 1.0
C      1  0.5573950000000  0.4902390000000  0.5285910000000 1.0
C      1  0.5414280000000  0.5536040000000  0.5004770000000 1.0
C      1  0.5001000000000  0.4602810000000  0.4448900000000 1.0
C      1  0.5000450000000  0.4646710000000  0.5559890000000 1.0
C      1  0.5062210000000  0.5390730000000  0.4449830000000 1.0
C      1  0.5546390000000  0.5099440000000  0.4665130000000 1.0
C      1  0.4406450000000  0.4999760000000  0.5393070000000 1.0
C      1  0.4461850000000  0.4878900000000  0.4726030000000 1.0
C      1  0.5296070000000  0.4495960000000  0.5084430000000 1.0
C      1  0.4684230000000  0.4447260000000  0.4920100000000 1.0
C      1  0.4605910000000  0.5528130000000  0.4997960000000 1.0
C      1  0.5016660000000  0.5367530000000  0.5549370000000 1.0
C      1  0.4431560000000  0.4894470000000  0.5306380000000 1.0
C      1  0.4697610000000  0.5536770000000  0.4889370000000 1.0
C      1  0.5096490000000  0.4702100000000  0.4444260000000 1.0
C      1  0.4896650000000  0.4733490000000  0.5534800000000 1.0
C      1  0.4944080000000  0.5317680000000  0.4482510000000 1.0
C      1  0.4462640000000  0.4971420000000  0.4622900000000 1.0
C      1  0.5549260000000  0.5021910000000  0.5378860000000 1.0
C      1  0.5546690000000  0.4995710000000  0.4567360000000 1.0
C      1  0.4605010000000  0.4431830000000  0.5035740000000 1.0
C      1  0.5374880000000  0.4480850000000  0.4973390000000 1.0
C      1  0.5313000000000  0.5536600000000  0.5107760000000 1.0
C      1  0.5435640000000  0.4378600000000  0.5487340000000 1.0
C      1  0.5515790000000  0.5453720000000  0.4351150000000 1.0
C      1  0.4341690000000  0.5476510000000  0.5437140000000 1.0
C      1  0.5465700000000  0.5644760000000  0.4499550000000 1.0
C      1  0.4545140000000  0.5605780000000  0.5478430000000 1.0
C      1  0.4558220000000  0.4361860000000  0.4530200000000 1.0
C      1  0.5484060000000  0.4574560000000  0.5626340000000 1.0
C      1  0.4512430000000  0.4566670000000  0.4405600000000 1.0
C      1  0.4484590000000  0.5426760000000  0.5629960000000 1.0
C      1  0.4374230000000  0.4505010000000  0.4596060000000 1.0
C      1  0.5622790000000  0.4520850000000  0.5432270000000 1.0
C      1  0.5661760000000  0.5504510000000  0.4541140000000 1.0
C      1  0.4552800000000  0.4377690000000  0.5492060000000 1.0
C      1  0.4524380000000  0.5437160000000  0.4361630000000 1.0
C      1  0.5635440000000  0.5496760000000  0.5441450000000 1.0
C      1  0.4573100000000  0.5629070000000  0.4506570000000 1.0
C      1  0.5447050000000  0.5643140000000  0.5494770000000 1.0
C      1  0.5433950000000  0.4388870000000  0.4502910000000 1.0
C      1  0.4492610000000  0.4571190000000  0.5625100000000 1.0
C      1  0.5505350000000  0.4556530000000  0.4340670000000 1.0
C      1  0.5487280000000  0.5445640000000  0.5631630000000 1.0
C      1  0.5632880000000  0.4518130000000  0.4545380000000 1.0
C      1  0.4345180000000  0.4497550000000  0.5448070000000 1.0
C      1  0.4384460000000  0.5485450000000  0.4561020000000 1.0
C      1  0.5590510000000  0.5664860000000  0.4722840000000 1.0
C      1  0.4710600000000  0.5530590000000  0.5655820000000 1.0
C      1  0.5676810000000  0.4731580000000  0.5559240000000 1.0
C      1  0.5544750000000  0.4353990000000  0.5260390000000 1.0
C      1  0.4430430000000  0.4308740000000  0.4744700000000 1.0
C      1  0.4414750000000  0.5655620000000  0.5268260000000 1.0
C      1  0.4720290000000  0.4434660000000  0.4348240000000 1.0
C      1  0.5268490000000  0.4443210000000  0.5662160000000 1.0
C      1  0.5303380000000  0.5589240000000  0.4313600000000 1.0
C      1  0.5696350000000  0.5284720000000  0.4419360000000 1.0
C      1  0.4298770000000  0.5268400000000  0.5582390000000 1.0
C      1  0.4327370000000  0.4722170000000  0.4487220000000 1.0
C      1  0.4441890000000  0.5677580000000  0.4718370000000 1.0
C      1  0.5269070000000  0.5575290000000  0.5659630000000 1.0
C      1  0.4304080000000  0.4721630000000  0.5551140000000 1.0
C      1  0.4409090000000  0.4310460000000  0.5293120000000 1.0
C      1  0.5560820000000  0.4338770000000  0.4712590000000 1.0
C      1  0.5573950000000  0.5683780000000  0.5278790000000 1.0
C      1  0.5281070000000  0.4445200000000  0.4310700000000 1.0
C      1  0.4718500000000  0.4477160000000  0.5660900000000 1.0
C      1  0.4749990000000  0.5564800000000  0.4338140000000 1.0
C      1  0.4359840000000  0.5263660000000  0.4441370000000 1.0
C      1  0.5665960000000  0.5280540000000  0.5571960000000 1.0
C      1  0.5683040000000  0.4723590000000  0.4407910000000 1.0
C      1  0.5695820000000  0.4940680000000  0.4280290000000 1.0
C      1  0.4305600000000  0.5690820000000  0.4931470000000 1.0
C      1  0.4935630000000  0.4337040000000  0.5694340000000 1.0
C      1  0.5674780000000  0.5066480000000  0.5697530000000 1.0
C      1  0.4321500000000  0.5055280000000  0.4318270000000 1.0
C      1  0.4279330000000  0.4934000000000  0.5700450000000 1.0
C      1  0.4282850000000  0.4289020000000  0.5080730000000 1.0
C      1  0.5689890000000  0.4322380000000  0.4924610000000 1.0
C      1  0.5709570000000  0.5688930000000  0.5061750000000 1.0
C      1  0.4960690000000  0.5703470000000  0.4321360000000 1.0
C      1  0.5048300000000  0.5684760000000  0.5655640000000 1.0
C      1  0.5058860000000  0.4316990000000  0.4307930000000 1.0
C      1  0.4300070000000  0.4936170000000  0.4340890000000 1.0
C      1  0.5715120000000  0.5677380000000  0.4938660000000 1.0
C      1  0.5056770000000  0.4316920000000  0.5680320000000 1.0
C      1  0.4288820000000  0.5056650000000  0.5712870000000 1.0
C      1  0.5703100000000  0.5064490000000  0.4286780000000 1.0
C      1  0.5689750000000  0.4945280000000  0.5690040000000 1.0
C      1  0.5680990000000  0.4329510000000  0.5047730000000 1.0
C      1  0.4294050000000  0.4290180000000  0.4957570000000 1.0
C      1  0.4291070000000  0.5680170000000  0.5053620000000 1.0
C      1  0.5084080000000  0.5711820000000  0.4314280000000 1.0
C      1  0.4927010000000  0.5670840000000  0.5667640000000 1.0
C      1  0.4936580000000  0.4315540000000  0.4322620000000 1.0
END
