TITL C-855863-9781-15 89.1295454384263 1000000 -2855.47827567406 0 0 420 (C1) n - 1
REM
REM in /scratch/bkarasulu/Larger-Clusters
REM
REM
REM
REM
REM
REM ./C.cell (28d0ae7d613b82ecca3ae8fabf5dfced)
REM
REM compiler GCC version 9.2.1 20190827 (Red Hat 9.2.1-1)
REM options -cpp -mtune=generic -march=x86-64 -g -O0 -fpre-include=/usr/include/finclude/math-vector-fortran.h
REM seed 119635167 -1656860693 -1884838790 -1539791029 -518314036 470043072 1344001262 216248608 2036369510 -1736690282 -665281281 2036283584 1691993401 -2050265754 822090389 -1766705105 470476723 -21285369 826644578 821808627 1054713035 575867827 1538996890 -1379219048 -1620081165 -982878991 -1743714386 -461703803 -2098038007 767322904 -1933062925 -176472053 185211343
REM
CELL 1.54180  100.00000  100.00000  100.00000   90.00000   90.00000   90.00000
LATT -1
SFAC C  
C      1  0.4911630000000  0.4370070000000  0.5489210000000 1.0
C      1  0.4279210000000  0.5387870000000  0.4709880000000 1.0
C      1  0.5334160000000  0.4791380000000  0.4286090000000 1.0
C      1  0.5171330000000  0.4293160000000  0.4562200000000 1.0
C      1  0.5184780000000  0.5647440000000  0.5478890000000 1.0
C      1  0.4749410000000  0.5801460000000  0.4671500000000 1.0
C      1  0.5725830000000  0.5219940000000  0.5340140000000 1.0
C      1  0.5624350000000  0.4613090000000  0.4686270000000 1.0
C      1  0.4410130000000  0.4610260000000  0.5237560000000 1.0
C      1  0.4565060000000  0.4698520000000  0.5740580000000 1.0
C      1  0.4565890000000  0.5071280000000  0.4275890000000 1.0
C      1  0.5304370000000  0.5227590000000  0.5657800000000 1.0
C      1  0.4893400000000  0.5688830000000  0.5435850000000 1.0
C      1  0.4434590000000  0.4539550000000  0.4766660000000 1.0
C      1  0.5356970000000  0.5290690000000  0.4331410000000 1.0
C      1  0.5233830000000  0.5610110000000  0.4609940000000 1.0
C      1  0.5285380000000  0.4312810000000  0.5460260000000 1.0
C      1  0.4728140000000  0.4308270000000  0.4701550000000 1.0
C      1  0.5659640000000  0.4566280000000  0.5230500000000 1.0
C      1  0.5638040000000  0.5434700000000  0.4791900000000 1.0
C      1  0.4205040000000  0.5398050000000  0.5206640000000 1.0
C      1  0.4551880000000  0.5244500000000  0.5607300000000 1.0
C      1  0.4642740000000  0.4803180000000  0.4273440000000 1.0
C      1  0.5464170000000  0.4775420000000  0.5867550000000 1.0
C      1  0.5246700000000  0.5275100000000  0.5526910000000 1.0
C      1  0.5310050000000  0.5340850000000  0.5217970000000 1.0
C      1  0.5390920000000  0.5084110000000  0.5305710000000 1.0
C      1  0.4724360000000  0.5327900000000  0.4569870000000 1.0
C      1  0.4904300000000  0.4742000000000  0.5499350000000 1.0
C      1  0.5182730000000  0.4632300000000  0.4454770000000 1.0
C      1  0.4625160000000  0.5478540000000  0.4781300000000 1.0
C      1  0.4788020000000  0.4588770000000  0.5240400000000 1.0
C      1  0.5297990000000  0.4492050000000  0.4794900000000 1.0
C      1  0.4495500000000  0.5151970000000  0.4635530000000 1.0
C      1  0.4632630000000  0.4822770000000  0.5406150000000 1.0
C      1  0.5335650000000  0.4830000000000  0.4632530000000 1.0
C      1  0.5281960000000  0.4669140000000  0.5586470000000 1.0
C      1  0.5309670000000  0.4603550000000  0.5264530000000 1.0
C      1  0.5382430000000  0.4828440000000  0.5397800000000 1.0
C      1  0.4814160000000  0.4716550000000  0.4454780000000 1.0
C      1  0.4808860000000  0.5343900000000  0.5376510000000 1.0
C      1  0.5052100000000  0.5291540000000  0.4576310000000 1.0
C      1  0.4797370000000  0.4609390000000  0.4723740000000 1.0
C      1  0.4687730000000  0.5477060000000  0.5131510000000 1.0
C      1  0.5282220000000  0.5443040000000  0.4904190000000 1.0
C      1  0.4632850000000  0.4837750000000  0.4643640000000 1.0
C      1  0.4530760000000  0.5259310000000  0.5227190000000 1.0
C      1  0.5296690000000  0.5207350000000  0.4687830000000 1.0
C      1  0.5777090000000  0.4786360000000  0.4765930000000 1.0
C      1  0.4741910000000  0.4783310000000  0.5892520000000 1.0
C      1  0.4944270000000  0.5930740000000  0.4710670000000 1.0
C      1  0.4219370000000  0.4757090000000  0.5180190000000 1.0
C      1  0.4097380000000  0.5243260000000  0.4789750000000 1.0
C      1  0.5877440000000  0.5270420000000  0.5174420000000 1.0
C      1  0.5307940000000  0.4928240000000  0.4099800000000 1.0
C      1  0.5238910000000  0.5171160000000  0.5873170000000 1.0
C      1  0.4730350000000  0.5165780000000  0.4109560000000 1.0
C      1  0.5219470000000  0.5796630000000  0.5269260000000 1.0
C      1  0.5078780000000  0.4132440000000  0.4726650000000 1.0
C      1  0.4885380000000  0.4194000000000  0.5322320000000 1.0
C      1  0.5812790000000  0.5310340000000  0.4909440000000 1.0
C      1  0.4685900000000  0.5135550000000  0.5783740000000 1.0
C      1  0.4818270000000  0.4137510000000  0.4781780000000 1.0
C      1  0.4066050000000  0.5278350000000  0.5058480000000 1.0
C      1  0.4239450000000  0.4698690000000  0.4826890000000 1.0
C      1  0.5793490000000  0.4742740000000  0.5126400000000 1.0
C      1  0.5281190000000  0.5194910000000  0.4126570000000 1.0
C      1  0.5279260000000  0.4919760000000  0.5943910000000 1.0
C      1  0.4775620000000  0.4829410000000  0.4064720000000 1.0
C      1  0.5225660000000  0.4171600000000  0.5261260000000 1.0
C      1  0.5195740000000  0.5828920000000  0.4712570000000 1.0
C      1  0.4916290000000  0.5862730000000  0.5257120000000 1.0
C      1  0.4183080000000  0.5208410000000  0.4570480000000 1.0
C      1  0.5270860000000  0.4679630000000  0.4093440000000 1.0
C      1  0.4688580000000  0.4297900000000  0.5411790000000 1.0
C      1  0.5952640000000  0.5182150000000  0.5398100000000 1.0
C      1  0.5687830000000  0.4794010000000  0.4543670000000 1.0
C      1  0.4301520000000  0.4757170000000  0.5405160000000 1.0
C      1  0.4746990000000  0.4558210000000  0.5813940000000 1.0
C      1  0.4676720000000  0.5280660000000  0.4325080000000 1.0
C      1  0.5186930000000  0.5395780000000  0.5800780000000 1.0
C      1  0.5310740000000  0.4176380000000  0.4726790000000 1.0
C      1  0.5316270000000  0.5569360000000  0.5293280000000 1.0
C      1  0.4726620000000  0.6002070000000  0.4789930000000 1.0
C      1  0.4310900000000  0.4658870000000  0.4601790000000 1.0
C      1  0.5203360000000  0.5412960000000  0.4200060000000 1.0
C      1  0.4740920000000  0.5691380000000  0.5253250000000 1.0
C      1  0.5831260000000  0.4688790000000  0.5359000000000 1.0
C      1  0.5749910000000  0.5263010000000  0.4678790000000 1.0
C      1  0.4052910000000  0.5249190000000  0.5302120000000 1.0
C      1  0.4645110000000  0.5374910000000  0.5777580000000 1.0
C      1  0.4740870000000  0.4614970000000  0.4155670000000 1.0
C      1  0.5262160000000  0.4683850000000  0.5957850000000 1.0
C      1  0.5400700000000  0.5719660000000  0.4753150000000 1.0
C      1  0.5426540000000  0.4305430000000  0.5262980000000 1.0
C      1  0.4596690000000  0.4190310000000  0.4874280000000 1.0
C      1  0.5184710000000  0.5976630000000  0.4701210000000 1.0
C      1  0.5871800000000  0.4733450000000  0.5008970000000 1.0
C      1  0.4681050000000  0.5047600000000  0.5897790000000 1.0
C      1  0.5018470000000  0.5960170000000  0.5287330000000 1.0
C      1  0.4870840000000  0.4005230000000  0.4756020000000 1.0
C      1  0.5123070000000  0.4079310000000  0.5299950000000 1.0
C      1  0.4147870000000  0.4680710000000  0.4934240000000 1.0
C      1  0.3944660000000  0.5253130000000  0.4982650000000 1.0
C      1  0.5954160000000  0.5322800000000  0.4948620000000 1.0
C      1  0.5320150000000  0.5150080000000  0.3994140000000 1.0
C      1  0.5266580000000  0.5014580000000  0.6053820000000 1.0
C      1  0.4748930000000  0.4937940000000  0.3977680000000 1.0
C      1  0.5013380000000  0.4000910000000  0.4727970000000 1.0
C      1  0.5988880000000  0.5301390000000  0.5087190000000 1.0
C      1  0.4703040000000  0.4911390000000  0.5939380000000 1.0
C      1  0.4981030000000  0.4087710000000  0.5328380000000 1.0
C      1  0.5048210000000  0.6031200000000  0.4700440000000 1.0
C      1  0.5164610000000  0.5929390000000  0.5290760000000 1.0
C      1  0.3959870000000  0.5237130000000  0.4839270000000 1.0
C      1  0.4137160000000  0.4703150000000  0.5074950000000 1.0
C      1  0.5869140000000  0.4752580000000  0.4868350000000 1.0
C      1  0.5335480000000  0.5005550000000  0.3980730000000 1.0
C      1  0.5245500000000  0.5150600000000  0.6015740000000 1.0
C      1  0.4731840000000  0.5081350000000  0.3996370000000 1.0
C      1  0.4895730000000  0.3955700000000  0.4893330000000 1.0
C      1  0.4034590000000  0.4786150000000  0.4913420000000 1.0
C      1  0.4881790000000  0.4965560000000  0.3905190000000 1.0
C      1  0.5092410000000  0.3993160000000  0.5178960000000 1.0
C      1  0.5200320000000  0.6029070000000  0.4839390000000 1.0
C      1  0.5040650000000  0.6037560000000  0.5160360000000 1.0
C      1  0.5974690000000  0.4849680000000  0.5020520000000 1.0
C      1  0.6007310000000  0.5190730000000  0.4914000000000 1.0
C      1  0.3922600000000  0.5107970000000  0.4998440000000 1.0
C      1  0.5126210000000  0.5004740000000  0.6094450000000 1.0
C      1  0.5189610000000  0.5143220000000  0.3920100000000 1.0
C      1  0.4796350000000  0.5091420000000  0.5989820000000 1.0
C      1  0.5065420000000  0.6079090000000  0.4839950000000 1.0
C      1  0.3931530000000  0.5089620000000  0.4856850000000 1.0
C      1  0.4863380000000  0.5104300000000  0.3923500000000 1.0
C      1  0.5180910000000  0.6004320000000  0.5161880000000 1.0
C      1  0.5036280000000  0.3948670000000  0.4865570000000 1.0
C      1  0.4954280000000  0.4000770000000  0.5205570000000 1.0
C      1  0.6043450000000  0.5166950000000  0.5051010000000 1.0
C      1  0.5961880000000  0.4873400000000  0.4882660000000 1.0
C      1  0.4028030000000  0.4806990000000  0.5051130000000 1.0
C      1  0.5103160000000  0.5141430000000  0.6056930000000 1.0
C      1  0.5206150000000  0.5001730000000  0.3906700000000 1.0
C      1  0.4818230000000  0.4957820000000  0.6027880000000 1.0
C      1  0.5064160000000  0.4174390000000  0.4868960000000 1.0
C      1  0.4202400000000  0.4904020000000  0.5167460000000 1.0
C      1  0.4866900000000  0.5208880000000  0.4121080000000 1.0
C      1  0.4844300000000  0.4202490000000  0.5183080000000 1.0
C      1  0.4985430000000  0.5875900000000  0.4837230000000 1.0
C      1  0.5222880000000  0.5781960000000  0.5125230000000 1.0
C      1  0.5762690000000  0.4933880000000  0.4775770000000 1.0
C      1  0.5821950000000  0.5159580000000  0.5100720000000 1.0
C      1  0.4156640000000  0.5120320000000  0.4853130000000 1.0
C      1  0.5119490000000  0.5083270000000  0.5832860000000 1.0
C      1  0.5168840000000  0.4969590000000  0.4131840000000 1.0
C      1  0.4888280000000  0.4782790000000  0.5900020000000 1.0
C      1  0.5125370000000  0.5807100000000  0.4848020000000 1.0
C      1  0.4146670000000  0.5155100000000  0.5028430000000 1.0
C      1  0.4919160000000  0.4827870000000  0.4086360000000 1.0
C      1  0.4915630000000  0.5848970000000  0.5113970000000 1.0
C      1  0.4897030000000  0.4184330000000  0.4898140000000 1.0
C      1  0.5217790000000  0.4173270000000  0.5116120000000 1.0
C      1  0.5777710000000  0.5167200000000  0.4954330000000 1.0
C      1  0.5795120000000  0.4887930000000  0.5168120000000 1.0
C      1  0.4219860000000  0.4841630000000  0.4792660000000 1.0
C      1  0.5141180000000  0.4924510000000  0.5879260000000 1.0
C      1  0.5146440000000  0.5131840000000  0.4142930000000 1.0
C      1  0.4835600000000  0.5167760000000  0.5772650000000 1.0
C      1  0.5147580000000  0.4390930000000  0.4491360000000 1.0
C      1  0.4548620000000  0.4608550000000  0.5213230000000 1.0
C      1  0.4518390000000  0.5076650000000  0.4413550000000 1.0
C      1  0.4955930000000  0.4494170000000  0.5524580000000 1.0
C      1  0.4708220000000  0.5685980000000  0.4679490000000 1.0
C      1  0.5149250000000  0.5512480000000  0.5499460000000 1.0
C      1  0.5531870000000  0.4532760000000  0.4708170000000 1.0
C      1  0.5607610000000  0.5188220000000  0.5336200000000 1.0
C      1  0.4379990000000  0.5445320000000  0.4752770000000 1.0
C      1  0.5374320000000  0.5105200000000  0.5660090000000 1.0
C      1  0.5391570000000  0.4893870000000  0.4371000000000 1.0
C      1  0.4546540000000  0.4798010000000  0.5644960000000 1.0
C      1  0.5157460000000  0.5521830000000  0.4566040000000 1.0
C      1  0.4328190000000  0.5395080000000  0.5209580000000 1.0
C      1  0.4566720000000  0.4923110000000  0.4283340000000 1.0
C      1  0.4910360000000  0.5551240000000  0.5433060000000 1.0
C      1  0.4805640000000  0.4384520000000  0.4640690000000 1.0
C      1  0.5280900000000  0.4407020000000  0.5543870000000 1.0
C      1  0.5514860000000  0.5442510000000  0.4793750000000 1.0
C      1  0.5541490000000  0.4584790000000  0.5160220000000 1.0
C      1  0.4557350000000  0.4519300000000  0.4774590000000 1.0
C      1  0.5463030000000  0.4759160000000  0.5743130000000 1.0
C      1  0.5361490000000  0.5246450000000  0.4447930000000 1.0
C      1  0.4546570000000  0.5242770000000  0.5484330000000 1.0
C      1  0.5114300000000  0.4930280000000  0.3989680000000 1.0
C      1  0.4862960000000  0.4071180000000  0.5120380000000 1.0
C      1  0.4050280000000  0.5017060000000  0.4823400000000 1.0
C      1  0.4930390000000  0.4870560000000  0.6006310000000 1.0
C      1  0.4945680000000  0.5189330000000  0.4002400000000 1.0
C      1  0.5025360000000  0.5152380000000  0.5936920000000 1.0
C      1  0.5108750000000  0.4048970000000  0.4938200000000 1.0
C      1  0.5229480000000  0.5911180000000  0.5063090000000 1.0
C      1  0.4980280000000  0.5995130000000  0.4923840000000 1.0
C      1  0.5945080000000  0.5074280000000  0.5109360000000 1.0
C      1  0.5891670000000  0.4982870000000  0.4822750000000 1.0
C      1  0.4066350000000  0.4928880000000  0.5114900000000 1.0
C      1  0.5083400000000  0.5177110000000  0.4011530000000 1.0
C      1  0.4960520000000  0.5977110000000  0.5058560000000 1.0
C      1  0.4084570000000  0.4884110000000  0.4820860000000 1.0
C      1  0.4890700000000  0.5171460000000  0.5915010000000 1.0
C      1  0.4984960000000  0.4889230000000  0.3972180000000 1.0
C      1  0.5061260000000  0.4911020000000  0.6008700000000 1.0
C      1  0.5216820000000  0.5916730000000  0.4926920000000 1.0
C      1  0.5156440000000  0.4053480000000  0.5066080000000 1.0
C      1  0.4861380000000  0.4063060000000  0.4983670000000 1.0
C      1  0.5925190000000  0.4939030000000  0.5120600000000 1.0
C      1  0.5896790000000  0.5112200000000  0.4867660000000 1.0
C      1  0.4035960000000  0.5055610000000  0.5071300000000 1.0
C      1  0.4927570000000  0.4837320000000  0.5386920000000 1.0
C      1  0.4691740000000  0.5353240000000  0.4810950000000 1.0
C      1  0.5220430000000  0.4748510000000  0.4678550000000 1.0
C      1  0.5153970000000  0.4667050000000  0.4589710000000 1.0
C      1  0.5175020000000  0.5158070000000  0.5310950000000 1.0
C      1  0.4729000000000  0.5273420000000  0.4702030000000 1.0
C      1  0.5223610000000  0.5224460000000  0.5202070000000 1.0
C      1  0.5137990000000  0.4643620000000  0.4724990000000 1.0
C      1  0.4935110000000  0.4758170000000  0.5268640000000 1.0
C      1  0.4834620000000  0.4847000000000  0.5278220000000 1.0
C      1  0.4639490000000  0.5226160000000  0.4796190000000 1.0
C      1  0.5268720000000  0.5097650000000  0.5226350000000 1.0
C      1  0.4761000000000  0.5232280000000  0.5188550000000 1.0
C      1  0.4863080000000  0.4741150000000  0.4700400000000 1.0
C      1  0.5173640000000  0.5201100000000  0.4766960000000 1.0
C      1  0.5058140000000  0.5263030000000  0.4721340000000 1.0
C      1  0.5184150000000  0.4770970000000  0.5535650000000 1.0
C      1  0.4868060000000  0.4797750000000  0.4570600000000 1.0
C      1  0.5205290000000  0.4685730000000  0.5314930000000 1.0
C      1  0.5113240000000  0.5289600000000  0.4849250000000 1.0
C      1  0.4736090000000  0.5340880000000  0.5105890000000 1.0
C      1  0.4641150000000  0.5235440000000  0.5120910000000 1.0
C      1  0.4783950000000  0.4847200000000  0.4673530000000 1.0
C      1  0.5231110000000  0.4800560000000  0.5397660000000 1.0
C      1  0.4849820000000  0.4491130000000  0.5815540000000 1.0
C      1  0.4641990000000  0.5964520000000  0.4878800000000 1.0
C      1  0.5656970000000  0.4889820000000  0.4474270000000 1.0
C      1  0.5189220000000  0.4585230000000  0.4083810000000 1.0
C      1  0.5090650000000  0.5476370000000  0.5801830000000 1.0
C      1  0.4747120000000  0.5390400000000  0.4287910000000 1.0
C      1  0.5407780000000  0.5595600000000  0.5197910000000 1.0
C      1  0.5405110000000  0.4186180000000  0.4808460000000 1.0
C      1  0.4583410000000  0.4274770000000  0.5347950000000 1.0
C      1  0.4248840000000  0.4847530000000  0.5475740000000 1.0
C      1  0.4189440000000  0.5102080000000  0.4504930000000 1.0
C      1  0.5996580000000  0.5096190000000  0.5481440000000 1.0
C      1  0.4721110000000  0.5474290000000  0.5787710000000 1.0
C      1  0.4542240000000  0.4206100000000  0.4985150000000 1.0
C      1  0.5700780000000  0.5195580000000  0.4582920000000 1.0
C      1  0.5089690000000  0.5468110000000  0.4204870000000 1.0
C      1  0.5194190000000  0.4587700000000  0.5909120000000 1.0
C      1  0.4828720000000  0.4533860000000  0.4118140000000 1.0
C      1  0.5490770000000  0.4288890000000  0.5155730000000 1.0
C      1  0.5467930000000  0.5703160000000  0.4857740000000 1.0
C      1  0.4651480000000  0.5763820000000  0.5182250000000 1.0
C      1  0.4089600000000  0.5172530000000  0.5395000000000 1.0
C      1  0.4271070000000  0.4735740000000  0.4511250000000 1.0
C      1  0.5900480000000  0.4740020000000  0.5449490000000 1.0
C      1  0.5639760000000  0.4993840000000  0.4822610000000 1.0
C      1  0.4952750000000  0.4802310000000  0.5773110000000 1.0
C      1  0.4957200000000  0.5643540000000  0.4942460000000 1.0
C      1  0.4304510000000  0.4993700000000  0.5135620000000 1.0
C      1  0.4291840000000  0.5078080000000  0.4812980000000 1.0
C      1  0.5611100000000  0.5014100000000  0.5057160000000 1.0
C      1  0.5101650000000  0.4902940000000  0.4243570000000 1.0
C      1  0.5062040000000  0.5093690000000  0.5696010000000 1.0
C      1  0.4922420000000  0.5169220000000  0.4246270000000 1.0
C      1  0.5177610000000  0.5670460000000  0.5049480000000 1.0
C      1  0.5132200000000  0.4299600000000  0.4914830000000 1.0
C      1  0.4865270000000  0.4316620000000  0.5104760000000 1.0
C      1  0.5656030000000  0.5077830000000  0.4941330000000 1.0
C      1  0.4919330000000  0.5101540000000  0.5687900000000 1.0
C      1  0.4865350000000  0.4314240000000  0.4957740000000 1.0
C      1  0.4279240000000  0.5130830000000  0.5085070000000 1.0
C      1  0.4323060000000  0.4935780000000  0.4817330000000 1.0
C      1  0.5667980000000  0.4951780000000  0.5178310000000 1.0
C      1  0.5063780000000  0.5165430000000  0.4262980000000 1.0
C      1  0.5091560000000  0.4834580000000  0.5764060000000 1.0
C      1  0.4967230000000  0.4855470000000  0.4215600000000 1.0
C      1  0.5179940000000  0.4298610000000  0.5053920000000 1.0
C      1  0.5100700000000  0.5683940000000  0.4920900000000 1.0
C      1  0.4913700000000  0.5717150000000  0.5063220000000 1.0
C      1  0.5406980000000  0.4752650000000  0.5619750000000 1.0
C      1  0.4745590000000  0.5547720000000  0.5240320000000 1.0
C      1  0.5386580000000  0.5271560000000  0.4761230000000 1.0
C      1  0.4692180000000  0.4774080000000  0.4407670000000 1.0
C      1  0.4736750000000  0.5240340000000  0.5329060000000 1.0
C      1  0.5133450000000  0.5190810000000  0.4505060000000 1.0
C      1  0.5163470000000  0.5386900000000  0.4942550000000 1.0
C      1  0.5228070000000  0.4559110000000  0.5372130000000 1.0
C      1  0.4825800000000  0.4520360000000  0.4618970000000 1.0
C      1  0.4463030000000  0.5375360000000  0.5185330000000 1.0
C      1  0.4608550000000  0.4750080000000  0.4742890000000 1.0
C      1  0.5459950000000  0.4792090000000  0.5279810000000 1.0
C      1  0.5234330000000  0.5163270000000  0.5441720000000 1.0
C      1  0.4911060000000  0.4612630000000  0.5301890000000 1.0
C      1  0.5422760000000  0.4904530000000  0.4704700000000 1.0
C      1  0.4651800000000  0.5264880000000  0.4467600000000 1.0
C      1  0.4789480000000  0.4780970000000  0.5579670000000 1.0
C      1  0.5271120000000  0.4727410000000  0.4401260000000 1.0
C      1  0.5160660000000  0.4519450000000  0.4798170000000 1.0
C      1  0.5284940000000  0.5433340000000  0.5324400000000 1.0
C      1  0.4695900000000  0.5548360000000  0.4680530000000 1.0
C      1  0.4696900000000  0.4803730000000  0.5288860000000 1.0
C      1  0.4508340000000  0.5174400000000  0.4768600000000 1.0
C      1  0.5484310000000  0.5180460000000  0.5271370000000 1.0
C      1  0.4818130000000  0.5475330000000  0.5346560000000 1.0
C      1  0.5385830000000  0.5393440000000  0.4827300000000 1.0
C      1  0.5418920000000  0.4869900000000  0.5532400000000 1.0
C      1  0.5038200000000  0.5441040000000  0.4552770000000 1.0
C      1  0.5262500000000  0.4542880000000  0.5516000000000 1.0
C      1  0.4866900000000  0.4580190000000  0.4489040000000 1.0
C      1  0.4539560000000  0.5464160000000  0.5090450000000 1.0
C      1  0.4659480000000  0.4622410000000  0.4769410000000 1.0
C      1  0.5437780000000  0.4651050000000  0.5239800000000 1.0
C      1  0.4606000000000  0.4847080000000  0.4503580000000 1.0
C      1  0.4592440000000  0.5230740000000  0.5353670000000 1.0
C      1  0.5273990000000  0.5201970000000  0.4547780000000 1.0
C      1  0.4941330000000  0.4612930000000  0.5445160000000 1.0
C      1  0.5409940000000  0.4503620000000  0.4741830000000 1.0
C      1  0.5341260000000  0.5070450000000  0.5439890000000 1.0
C      1  0.5105370000000  0.4509410000000  0.4423420000000 1.0
C      1  0.5236940000000  0.5403140000000  0.5460540000000 1.0
C      1  0.4782590000000  0.5465560000000  0.4592130000000 1.0
C      1  0.4677120000000  0.4670770000000  0.5227650000000 1.0
C      1  0.4490310000000  0.5486310000000  0.4835450000000 1.0
C      1  0.5442790000000  0.5287560000000  0.5177320000000 1.0
C      1  0.4549760000000  0.5169600000000  0.4513020000000 1.0
C      1  0.4652800000000  0.4797420000000  0.5535600000000 1.0
C      1  0.5333630000000  0.4824620000000  0.4488120000000 1.0
C      1  0.5114770000000  0.5562910000000  0.5120360000000 1.0
C      1  0.5510310000000  0.4907210000000  0.5051420000000 1.0
C      1  0.5071350000000  0.4986710000000  0.5594680000000 1.0
C      1  0.4952050000000  0.5509990000000  0.5015390000000 1.0
C      1  0.4978500000000  0.4410940000000  0.5095710000000 1.0
C      1  0.5079960000000  0.4425560000000  0.4866050000000 1.0
C      1  0.4404260000000  0.5153280000000  0.4862660000000 1.0
C      1  0.4413380000000  0.4986270000000  0.5033890000000 1.0
C      1  0.5503790000000  0.4926210000000  0.4811020000000 1.0
C      1  0.4854000000000  0.5065640000000  0.4312610000000 1.0
C      1  0.4869640000000  0.4857850000000  0.5662560000000 1.0
C      1  0.5063710000000  0.4984740000000  0.4356500000000 1.0
C      1  0.5108510000000  0.4390230000000  0.5134210000000 1.0
C      1  0.5541170000000  0.4870760000000  0.5191240000000 1.0
C      1  0.5139740000000  0.4866110000000  0.5628470000000 1.0
C      1  0.4963890000000  0.4420460000000  0.4947170000000 1.0
C      1  0.4968520000000  0.5596830000000  0.5136720000000 1.0
C      1  0.5081320000000  0.5453810000000  0.5031290000000 1.0
C      1  0.4417700000000  0.4911470000000  0.4922700000000 1.0
C      1  0.4402740000000  0.5132510000000  0.5005470000000 1.0
C      1  0.5469620000000  0.4858310000000  0.4931950000000 1.0
C      1  0.4922520000000  0.4947720000000  0.4321530000000 1.0
C      1  0.4921690000000  0.4982950000000  0.5611380000000 1.0
C      1  0.5102170000000  0.5116020000000  0.4389810000000 1.0
C      1  0.5237050000000  0.5681420000000  0.5356330000000 1.0
C      1  0.5862370000000  0.5245860000000  0.5317020000000 1.0
C      1  0.5258460000000  0.5280690000000  0.5784750000000 1.0
C      1  0.4801930000000  0.5928620000000  0.4698370000000 1.0
C      1  0.4830820000000  0.4287990000000  0.5418890000000 1.0
C      1  0.5189860000000  0.4192110000000  0.4660380000000 1.0
C      1  0.4175680000000  0.5293650000000  0.4681140000000 1.0
C      1  0.4303680000000  0.4699840000000  0.5279210000000 1.0
C      1  0.5707430000000  0.4718470000000  0.4662950000000 1.0
C      1  0.4648360000000  0.5173720000000  0.4226280000000 1.0
C      1  0.4669400000000  0.4678830000000  0.5824060000000 1.0
C      1  0.5328600000000  0.4792020000000  0.4145190000000 1.0
C      1  0.5313470000000  0.4259230000000  0.5334160000000 1.0
C      1  0.5760700000000  0.4654610000000  0.5239450000000 1.0
C      1  0.5343090000000  0.4791970000000  0.5942510000000 1.0
C      1  0.4689790000000  0.4195920000000  0.4772860000000 1.0
C      1  0.4849120000000  0.5759710000000  0.5329330000000 1.0
C      1  0.5288210000000  0.5726180000000  0.4673610000000 1.0
C      1  0.4323220000000  0.4619010000000  0.4736850000000 1.0
C      1  0.4083480000000  0.5328890000000  0.5192130000000 1.0
C      1  0.5750220000000  0.5349260000000  0.4786060000000 1.0
C      1  0.4700680000000  0.4746850000000  0.4156010000000 1.0
C      1  0.4602340000000  0.5247630000000  0.5738930000000 1.0
C      1  0.5298590000000  0.5312590000000  0.4207700000000 1.0
C      1  0.4601890000000  0.5835070000000  0.5091320000000 1.0
C      1  0.5640110000000  0.5124650000000  0.4495880000000 1.0
C      1  0.5100240000000  0.4521170000000  0.5857980000000 1.0
C      1  0.5507820000000  0.5666520000000  0.4976130000000 1.0
C      1  0.5509040000000  0.4257940000000  0.5030060000000 1.0
C      1  0.4504430000000  0.4233180000000  0.5109560000000 1.0
C      1  0.4132630000000  0.5072950000000  0.5470480000000 1.0
C      1  0.4236290000000  0.4855790000000  0.4468330000000 1.0
C      1  0.5965370000000  0.4844890000000  0.5502700000000 1.0
C      1  0.4953630000000  0.4506460000000  0.4088240000000 1.0
C      1  0.4842200000000  0.5528310000000  0.5791560000000 1.0
C      1  0.4964580000000  0.5493890000000  0.4222310000000 1.0
C      1  0.4523110000000  0.4253180000000  0.5230940000000 1.0
C      1  0.5596620000000  0.5012400000000  0.4431880000000 1.0
C      1  0.4967770000000  0.5523580000000  0.5794710000000 1.0
C      1  0.5473360000000  0.4218410000000  0.4915580000000 1.0
C      1  0.5471720000000  0.5632800000000  0.5095980000000 1.0
C      1  0.4593700000000  0.5900260000000  0.4977710000000 1.0
C      1  0.4185190000000  0.4961000000000  0.5492350000000 1.0
C      1  0.4209330000000  0.4978180000000  0.4463630000000 1.0
C      1  0.5996540000000  0.4966130000000  0.5511420000000 1.0
C      1  0.4842450000000  0.5466250000000  0.4253190000000 1.0
C      1  0.4992100000000  0.4495450000000  0.5778030000000 1.0
C      1  0.5078320000000  0.4515910000000  0.4074380000000 1.0
C      1  0.4482510000000  0.5485190000000  0.4971600000000 1.0
C      1  0.5476980000000  0.4998860000000  0.4352770000000 1.0
C      1  0.5014040000000  0.4504650000000  0.5647080000000 1.0
C      1  0.5528530000000  0.5327060000000  0.5078030000000 1.0
C      1  0.5531580000000  0.4565020000000  0.5023200000000 1.0
C      1  0.4461540000000  0.4523770000000  0.5143050000000 1.0
C      1  0.4478710000000  0.4916430000000  0.5663710000000 1.0
C      1  0.4529000000000  0.4934840000000  0.4427010000000 1.0
C      1  0.5397750000000  0.5011830000000  0.5559380000000 1.0
C      1  0.4970910000000  0.4532880000000  0.4421320000000 1.0
C      1  0.4912350000000  0.5489740000000  0.4570860000000 1.0
C      1  0.5014420000000  0.5490830000000  0.5497200000000 1.0
END
