TITL C-855863-9781-208 35.851872100089 1000000 -2529.89635500847 0 0 380 (C1) n - 1
REM
REM in /scratch/bkarasulu/Larger-Clusters
REM
REM
REM
REM
REM
REM ./C.cell (28d0ae7d613b82ecca3ae8fabf5dfced)
REM
REM compiler GCC version 9.2.1 20190827 (Red Hat 9.2.1-1)
REM options -cpp -mtune=generic -march=x86-64 -g -O0 -fpre-include=/usr/include/finclude/math-vector-fortran.h
REM seed -1011287943 -428499235 1934485574 -990220954 232302177 -2137791096 182971687 1554166119 1301023620 -1308168015 1326123001 -1398056331 2036928565 1157760459 -214690319 1399777057 505472957 1209073670 696297340 1095068668 -1321960409 -1881253685 95146652 -94462926 50931239 -850786906 -2024656963 -1373367523 -217237921 2024164946 382470106 -1079704102 127354662
REM
CELL 1.54180  100.00000  100.00000  100.00000   90.00000   90.00000   90.00000
LATT -1
SFAC C  
C      1  0.5115890000000  0.4079210000000  0.5898530000000 1.0
C      1  0.5644790000000  0.5217510000000  0.4076420000000 1.0
C      1  0.4122130000000  0.5795480000000  0.5006050000000 1.0
C      1  0.4986780000000  0.4258230000000  0.4510850000000 1.0
C      1  0.5091850000000  0.5877090000000  0.4205430000000 1.0
C      1  0.4957890000000  0.5833300000000  0.5689540000000 1.0
C      1  0.4344400000000  0.5196810000000  0.5801760000000 1.0
C      1  0.5684010000000  0.4729440000000  0.5852340000000 1.0
C      1  0.4265380000000  0.4851070000000  0.4127780000000 1.0
C      1  0.5936640000000  0.5670070000000  0.4946140000000 1.0
C      1  0.4306970000000  0.4430200000000  0.4926150000000 1.0
C      1  0.5961990000000  0.4343650000000  0.5076970000000 1.0
C      1  0.5198240000000  0.5732340000000  0.5597930000000 1.0
C      1  0.5568940000000  0.4963820000000  0.4063860000000 1.0
C      1  0.4249070000000  0.4347400000000  0.5186580000000 1.0
C      1  0.4856220000000  0.5845170000000  0.4347110000000 1.0
C      1  0.5210700000000  0.4193860000000  0.4361260000000 1.0
C      1  0.4903020000000  0.4055250000000  0.5733480000000 1.0
C      1  0.4197720000000  0.4981020000000  0.5866480000000 1.0
C      1  0.5584840000000  0.4982930000000  0.5862040000000 1.0
C      1  0.4230760000000  0.5100540000000  0.4061870000000 1.0
C      1  0.5920680000000  0.4209920000000  0.4843180000000 1.0
C      1  0.4188450000000  0.5696310000000  0.4772030000000 1.0
C      1  0.5840340000000  0.5585660000000  0.5175390000000 1.0
C      1  0.5134760000000  0.4299620000000  0.4317520000000 1.0
C      1  0.4176270000000  0.5068860000000  0.4186550000000 1.0
C      1  0.4356530000000  0.4294270000000  0.5121970000000 1.0
C      1  0.4895800000000  0.4151080000000  0.5830920000000 1.0
C      1  0.5136110000000  0.5671860000000  0.5703570000000 1.0
C      1  0.4871240000000  0.5778840000000  0.4227610000000 1.0
C      1  0.5661500000000  0.4946110000000  0.5754210000000 1.0
C      1  0.4155500000000  0.5049590000000  0.5756060000000 1.0
C      1  0.5639370000000  0.5001210000000  0.4175250000000 1.0
C      1  0.5875910000000  0.4147060000000  0.4957740000000 1.0
C      1  0.4277580000000  0.5782050000000  0.4830750000000 1.0
C      1  0.5788430000000  0.5702660000000  0.5127520000000 1.0
C      1  0.4994840000000  0.5798450000000  0.4146860000000 1.0
C      1  0.4177690000000  0.4919220000000  0.4208440000000 1.0
C      1  0.4251940000000  0.5821660000000  0.4972650000000 1.0
C      1  0.4998000000000  0.5710840000000  0.5737260000000 1.0
C      1  0.5004390000000  0.4152880000000  0.5933340000000 1.0
C      1  0.5015610000000  0.4326200000000  0.4394770000000 1.0
C      1  0.5729060000000  0.4815830000000  0.5755420000000 1.0
C      1  0.4232840000000  0.5173480000000  0.5726210000000 1.0
C      1  0.5692240000000  0.5140780000000  0.4180410000000 1.0
C      1  0.5820860000000  0.5729850000000  0.4982410000000 1.0
C      1  0.4384070000000  0.4334680000000  0.4986690000000 1.0
C      1  0.5882780000000  0.4232190000000  0.5080310000000 1.0
C      1  0.5463590000000  0.5843470000000  0.5083920000000 1.0
C      1  0.5081600000000  0.5341360000000  0.5857190000000 1.0
C      1  0.5727390000000  0.5007480000000  0.5399330000000 1.0
C      1  0.4621010000000  0.5886670000000  0.4860050000000 1.0
C      1  0.5566160000000  0.4013410000000  0.5072170000000 1.0
C      1  0.4691490000000  0.4135260000000  0.5148680000000 1.0
C      1  0.4804960000000  0.5467840000000  0.4057330000000 1.0
C      1  0.5040540000000  0.4618070000000  0.4146440000000 1.0
C      1  0.4812240000000  0.4496210000000  0.5906880000000 1.0
C      1  0.4089460000000  0.5114250000000  0.4536890000000 1.0
C      1  0.5734110000000  0.4937600000000  0.4518360000000 1.0
C      1  0.4034260000000  0.5039990000000  0.5415560000000 1.0
C      1  0.5569990000000  0.4090850000000  0.5199480000000 1.0
C      1  0.4928000000000  0.4493950000000  0.6001150000000 1.0
C      1  0.5796060000000  0.4877420000000  0.5395800000000 1.0
C      1  0.4711430000000  0.4164150000000  0.5007490000000 1.0
C      1  0.5481140000000  0.5847000000000  0.4935840000000 1.0
C      1  0.4609920000000  0.5896760000000  0.5007250000000 1.0
C      1  0.4906540000000  0.4617130000000  0.4207790000000 1.0
C      1  0.4939200000000  0.5478560000000  0.3992390000000 1.0
C      1  0.4935370000000  0.5365940000000  0.5850340000000 1.0
C      1  0.4071010000000  0.4966590000000  0.4551680000000 1.0
C      1  0.5791000000000  0.5074740000000  0.4525310000000 1.0
C      1  0.4076350000000  0.5181060000000  0.5400560000000 1.0
C      1  0.5855100000000  0.5340930000000  0.5101570000000 1.0
C      1  0.5151410000000  0.5796830000000  0.5353000000000 1.0
C      1  0.5349750000000  0.4935590000000  0.5940160000000 1.0
C      1  0.4105990000000  0.5466020000000  0.4839140000000 1.0
C      1  0.5916880000000  0.4575240000000  0.4847000000000 1.0
C      1  0.4111050000000  0.4657560000000  0.5071280000000 1.0
C      1  0.4951260000000  0.5869130000000  0.4580070000000 1.0
C      1  0.5186150000000  0.4076720000000  0.4710810000000 1.0
C      1  0.5023990000000  0.4029770000000  0.5512770000000 1.0
C      1  0.4496060000000  0.5047240000000  0.4019030000000 1.0
C      1  0.5330500000000  0.5002490000000  0.3983590000000 1.0
C      1  0.4537010000000  0.4963310000000  0.5927500000000 1.0
C      1  0.5937400000000  0.4583560000000  0.4995370000000 1.0
C      1  0.5170250000000  0.4019860000000  0.5542640000000 1.0
C      1  0.5343310000000  0.4790640000000  0.5973800000000 1.0
C      1  0.4170250000000  0.4654320000000  0.4932750000000 1.0
C      1  0.5934030000000  0.5345970000000  0.4973120000000 1.0
C      1  0.4040840000000  0.5487920000000  0.4973530000000 1.0
C      1  0.5056640000000  0.4154140000000  0.4733090000000 1.0
C      1  0.5097670000000  0.5904710000000  0.4567000000000 1.0
C      1  0.5023790000000  0.5880490000000  0.5360370000000 1.0
C      1  0.4506820000000  0.4906330000000  0.4058530000000 1.0
C      1  0.5322220000000  0.5148650000000  0.3955430000000 1.0
C      1  0.4571730000000  0.5097780000000  0.5865520000000 1.0
C      1  0.4371820000000  0.5689530000000  0.4476010000000 1.0
C      1  0.4598040000000  0.4227860000000  0.5495430000000 1.0
C      1  0.5382410000000  0.4637510000000  0.4249230000000 1.0
C      1  0.5421650000000  0.5334470000000  0.5501050000000 1.0
C      1  0.4413670000000  0.4309920000000  0.5488870000000 1.0
C      1  0.5435640000000  0.4599190000000  0.4440720000000 1.0
C      1  0.5451310000000  0.4454320000000  0.4300420000000 1.0
C      1  0.4557150000000  0.5677220000000  0.4466160000000 1.0
C      1  0.5457150000000  0.5497890000000  0.5614650000000 1.0
C      1  0.4572100000000  0.4428510000000  0.5523950000000 1.0
C      1  0.5422830000000  0.5319910000000  0.5705340000000 1.0
C      1  0.4418290000000  0.5572130000000  0.4358380000000 1.0
C      1  0.4507920000000  0.4423220000000  0.4646950000000 1.0
C      1  0.4375350000000  0.5752430000000  0.5586510000000 1.0
C      1  0.5685000000000  0.5805380000000  0.4338400000000 1.0
C      1  0.5802960000000  0.4516730000000  0.5423280000000 1.0
C      1  0.4170860000000  0.5602970000000  0.5450120000000 1.0
C      1  0.5798990000000  0.5658110000000  0.4564790000000 1.0
C      1  0.5611690000000  0.5757440000000  0.4513770000000 1.0
C      1  0.4684100000000  0.4389060000000  0.4628840000000 1.0
C      1  0.5645200000000  0.4419400000000  0.5508130000000 1.0
C      1  0.4374870000000  0.5582960000000  0.5496890000000 1.0
C      1  0.5806920000000  0.4471060000000  0.5622100000000 1.0
C      1  0.4573290000000  0.4535910000000  0.4542600000000 1.0
C      1  0.5095940000000  0.4244370000000  0.5487380000000 1.0
C      1  0.5250820000000  0.5083330000000  0.4176530000000 1.0
C      1  0.4272590000000  0.5412920000000  0.4969530000000 1.0
C      1  0.5337010000000  0.4266890000000  0.4787210000000 1.0
C      1  0.5050040000000  0.5669190000000  0.4596060000000 1.0
C      1  0.4998240000000  0.5644480000000  0.5317840000000 1.0
C      1  0.4548400000000  0.4840120000000  0.5703200000000 1.0
C      1  0.5269450000000  0.4841690000000  0.5748630000000 1.0
C      1  0.4569040000000  0.5056430000000  0.4235240000000 1.0
C      1  0.5692340000000  0.5342530000000  0.4953470000000 1.0
C      1  0.4310280000000  0.4789190000000  0.5165100000000 1.0
C      1  0.5663690000000  0.4575660000000  0.4855480000000 1.0
C      1  0.4871860000000  0.5674690000000  0.5333370000000 1.0
C      1  0.5243130000000  0.5213120000000  0.4190220000000 1.0
C      1  0.4313490000000  0.4785260000000  0.5034180000000 1.0
C      1  0.5180810000000  0.5663300000000  0.4582490000000 1.0
C      1  0.5211240000000  0.4301530000000  0.4801300000000 1.0
C      1  0.5223020000000  0.4265980000000  0.5512310000000 1.0
C      1  0.4584900000000  0.4965420000000  0.5691770000000 1.0
C      1  0.5256590000000  0.4710690000000  0.5747770000000 1.0
C      1  0.4578610000000  0.4942640000000  0.4298030000000 1.0
C      1  0.5711820000000  0.4589770000000  0.4976820000000 1.0
C      1  0.4257810000000  0.5444870000000  0.5094140000000 1.0
C      1  0.5722710000000  0.5365100000000  0.4828740000000 1.0
C      1  0.4145050000000  0.5267030000000  0.5488560000000 1.0
C      1  0.5671010000000  0.4180820000000  0.5244060000000 1.0
C      1  0.5022530000000  0.5586880000000  0.3976980000000 1.0
C      1  0.5797290000000  0.5175590000000  0.4429970000000 1.0
C      1  0.4069360000000  0.4867930000000  0.4455770000000 1.0
C      1  0.5831540000000  0.4797760000000  0.5504660000000 1.0
C      1  0.4616330000000  0.4208460000000  0.4914230000000 1.0
C      1  0.5597030000000  0.5822100000000  0.4858040000000 1.0
C      1  0.4495210000000  0.5888580000000  0.5085780000000 1.0
C      1  0.4871840000000  0.5485760000000  0.5832930000000 1.0
C      1  0.4997390000000  0.4391970000000  0.6061410000000 1.0
C      1  0.4855240000000  0.4525920000000  0.4299450000000 1.0
C      1  0.4021910000000  0.4967720000000  0.5531660000000 1.0
C      1  0.5552970000000  0.5827990000000  0.5186750000000 1.0
C      1  0.5134800000000  0.4515800000000  0.4155460000000 1.0
C      1  0.5659870000000  0.4876210000000  0.4415750000000 1.0
C      1  0.4121070000000  0.5190840000000  0.4424350000000 1.0
C      1  0.5664240000000  0.5066850000000  0.5509010000000 1.0
C      1  0.4525970000000  0.5866280000000  0.4757250000000 1.0
C      1  0.5663030000000  0.3979720000000  0.4980960000000 1.0
C      1  0.4567670000000  0.4145810000000  0.5212080000000 1.0
C      1  0.4762490000000  0.4389830000000  0.5826530000000 1.0
C      1  0.5183150000000  0.5434850000000  0.5833170000000 1.0
C      1  0.4734410000000  0.5560030000000  0.4138160000000 1.0
C      1  0.5289130000000  0.5516810000000  0.5866340000000 1.0
C      1  0.5568070000000  0.5136820000000  0.5583610000000 1.0
C      1  0.5641090000000  0.5867880000000  0.5285170000000 1.0
C      1  0.4654270000000  0.5609940000000  0.4243530000000 1.0
C      1  0.5233230000000  0.4431980000000  0.4103230000000 1.0
C      1  0.4721550000000  0.4325590000000  0.5708160000000 1.0
C      1  0.4194100000000  0.5285720000000  0.4354080000000 1.0
C      1  0.5553650000000  0.4809610000000  0.4351660000000 1.0
C      1  0.3947110000000  0.4920010000000  0.5637460000000 1.0
C      1  0.4468140000000  0.5820560000000  0.4640060000000 1.0
C      1  0.5764320000000  0.3900970000000  0.4929740000000 1.0
C      1  0.4456890000000  0.4098540000000  0.5278610000000 1.0
C      1  0.5018110000000  0.4299130000000  0.6161530000000 1.0
C      1  0.5925210000000  0.4734660000000  0.5584720000000 1.0
C      1  0.5725560000000  0.4299140000000  0.5296030000000 1.0
C      1  0.4790710000000  0.4473880000000  0.4413340000000 1.0
C      1  0.5067880000000  0.5696260000000  0.3906010000000 1.0
C      1  0.4800230000000  0.5593310000000  0.5881060000000 1.0
C      1  0.4007160000000  0.4780230000000  0.4369270000000 1.0
C      1  0.5796270000000  0.5306430000000  0.4377640000000 1.0
C      1  0.4224090000000  0.5374210000000  0.5529500000000 1.0
C      1  0.4566270000000  0.4267430000000  0.4799540000000 1.0
C      1  0.5674440000000  0.5772330000000  0.4753430000000 1.0
C      1  0.4418000000000  0.5845420000000  0.5191130000000 1.0
C      1  0.5160740000000  0.5808420000000  0.5496530000000 1.0
C      1  0.5492370000000  0.4928840000000  0.5937800000000 1.0
C      1  0.5897100000000  0.5475720000000  0.5129110000000 1.0
C      1  0.4933960000000  0.5895180000000  0.4440970000000 1.0
C      1  0.5238400000000  0.4109300000000  0.4450060000000 1.0
C      1  0.4993790000000  0.4008820000000  0.5650510000000 1.0
C      1  0.4250190000000  0.5109730000000  0.3931350000000 1.0
C      1  0.5473700000000  0.5012950000000  0.3987320000000 1.0
C      1  0.4278080000000  0.4949660000000  0.5959200000000 1.0
C      1  0.4101040000000  0.5607750000000  0.4817600000000 1.0
C      1  0.5947320000000  0.4317500000000  0.4782100000000 1.0
C      1  0.4153350000000  0.4429660000000  0.5191260000000 1.0
C      1  0.5186360000000  0.4022630000000  0.5810040000000 1.0
C      1  0.5592910000000  0.4700640000000  0.5934250000000 1.0
C      1  0.5977950000000  0.4446630000000  0.4996240000000 1.0
C      1  0.5044700000000  0.4172050000000  0.4592640000000 1.0
C      1  0.5142960000000  0.5932620000000  0.4307120000000 1.0
C      1  0.4966380000000  0.5931550000000  0.5609710000000 1.0
C      1  0.4366340000000  0.4890710000000  0.4048710000000 1.0
C      1  0.5567910000000  0.5247930000000  0.3980670000000 1.0
C      1  0.4433510000000  0.5133860000000  0.5876590000000 1.0
C      1  0.4210850000000  0.4517550000000  0.4957180000000 1.0
C      1  0.6033360000000  0.5587130000000  0.4941790000000 1.0
C      1  0.4005090000000  0.5745010000000  0.5015680000000 1.0
C      1  0.5196560000000  0.4112130000000  0.5311060000000 1.0
C      1  0.5079530000000  0.5125150000000  0.4013130000000 1.0
C      1  0.4101410000000  0.5257840000000  0.5031000000000 1.0
C      1  0.5096290000000  0.4181510000000  0.4960550000000 1.0
C      1  0.5124970000000  0.5798900000000  0.4788260000000 1.0
C      1  0.4962570000000  0.5803460000000  0.5138880000000 1.0
C      1  0.4781100000000  0.5011130000000  0.5806280000000 1.0
C      1  0.5097430000000  0.4822430000000  0.5918880000000 1.0
C      1  0.4742750000000  0.4951620000000  0.4104150000000 1.0
C      1  0.5818730000000  0.5143040000000  0.4901490000000 1.0
C      1  0.4141680000000  0.4895910000000  0.4928230000000 1.0
C      1  0.5814790000000  0.4788850000000  0.5018770000000 1.0
C      1  0.5093710000000  0.5743810000000  0.5132700000000 1.0
C      1  0.5095750000000  0.4985190000000  0.4042220000000 1.0
C      1  0.4105120000000  0.4903340000000  0.5065480000000 1.0
C      1  0.4983380000000  0.5774650000000  0.4791120000000 1.0
C      1  0.5220740000000  0.4110640000000  0.4955110000000 1.0
C      1  0.5053250000000  0.4123820000000  0.5297090000000 1.0
C      1  0.4750410000000  0.4877040000000  0.5847540000000 1.0
C      1  0.5120170000000  0.4957130000000  0.5878580000000 1.0
C      1  0.4725630000000  0.5091750000000  0.4074800000000 1.0
C      1  0.5797810000000  0.4790930000000  0.4875040000000 1.0
C      1  0.4146900000000  0.5240560000000  0.4897410000000 1.0
C      1  0.5757910000000  0.5137980000000  0.5032640000000 1.0
C      1  0.5696540000000  0.4384820000000  0.5634960000000 1.0
C      1  0.5805910000000  0.5611360000000  0.4443560000000 1.0
C      1  0.4159230000000  0.5734090000000  0.5450060000000 1.0
C      1  0.4686930000000  0.4459850000000  0.4499440000000 1.0
C      1  0.5598820000000  0.5872010000000  0.4435230000000 1.0
C      1  0.4459760000000  0.5635470000000  0.5590130000000 1.0
C      1  0.4259010000000  0.5503580000000  0.5494650000000 1.0
C      1  0.5903880000000  0.4501560000000  0.5528130000000 1.0
C      1  0.4442300000000  0.4488230000000  0.4539830000000 1.0
C      1  0.5690830000000  0.5728790000000  0.4624470000000 1.0
C      1  0.4573200000000  0.4295830000000  0.4659730000000 1.0
C      1  0.5718160000000  0.4404010000000  0.5387720000000 1.0
C      1  0.5481810000000  0.5449190000000  0.5741280000000 1.0
C      1  0.5459410000000  0.4706760000000  0.4351440000000 1.0
C      1  0.4459390000000  0.4180330000000  0.5502930000000 1.0
C      1  0.4550920000000  0.5619300000000  0.4331580000000 1.0
C      1  0.5438950000000  0.4521370000000  0.4180920000000 1.0
C      1  0.4648950000000  0.4328050000000  0.5588630000000 1.0
C      1  0.4432180000000  0.4438630000000  0.5537290000000 1.0
C      1  0.5476680000000  0.5241720000000  0.5593450000000 1.0
C      1  0.4304320000000  0.5652110000000  0.4356130000000 1.0
C      1  0.5500780000000  0.4474790000000  0.4429440000000 1.0
C      1  0.4470750000000  0.5791670000000  0.4501010000000 1.0
C      1  0.5473820000000  0.5463900000000  0.5480780000000 1.0
C      1  0.4161010000000  0.4782040000000  0.5130590000000 1.0
C      1  0.5274650000000  0.4130720000000  0.4815310000000 1.0
C      1  0.4586080000000  0.5124770000000  0.4108810000000 1.0
C      1  0.5790530000000  0.4649630000000  0.4830780000000 1.0
C      1  0.4206910000000  0.5366320000000  0.4851360000000 1.0
C      1  0.5730650000000  0.5276330000000  0.5075120000000 1.0
C      1  0.5001730000000  0.4144830000000  0.5430930000000 1.0
C      1  0.5123090000000  0.5687380000000  0.5265530000000 1.0
C      1  0.4943190000000  0.5746450000000  0.4652770000000 1.0
C      1  0.5258360000000  0.4962870000000  0.5833840000000 1.0
C      1  0.4604410000000  0.4863360000000  0.5839380000000 1.0
C      1  0.5236140000000  0.4968020000000  0.4084090000000 1.0
C      1  0.4118840000000  0.5399150000000  0.5064090000000 1.0
C      1  0.5166150000000  0.5798850000000  0.4645360000000 1.0
C      1  0.4613200000000  0.4902940000000  0.4156920000000 1.0
C      1  0.5841800000000  0.5284840000000  0.4872370000000 1.0
C      1  0.4234220000000  0.4780220000000  0.4911770000000 1.0
C      1  0.5824850000000  0.4647650000000  0.5055270000000 1.0
C      1  0.4922530000000  0.5805960000000  0.5279060000000 1.0
C      1  0.5225730000000  0.4127350000000  0.5456450000000 1.0
C      1  0.5080400000000  0.4252020000000  0.4833780000000 1.0
C      1  0.5228590000000  0.4748570000000  0.5891430000000 1.0
C      1  0.4656940000000  0.5071730000000  0.5754830000000 1.0
C      1  0.5211570000000  0.5189240000000  0.4043660000000 1.0
C      1  0.5690070000000  0.5772950000000  0.5200030000000 1.0
C      1  0.5203610000000  0.5565660000000  0.5772980000000 1.0
C      1  0.5642280000000  0.5034030000000  0.5642860000000 1.0
C      1  0.4392940000000  0.5816230000000  0.4753150000000 1.0
C      1  0.5795780000000  0.4033500000000  0.4941870000000 1.0
C      1  0.4437160000000  0.4205100000000  0.5195750000000 1.0
C      1  0.4770190000000  0.5678490000000  0.4204180000000 1.0
C      1  0.5162890000000  0.4386470000000  0.4211190000000 1.0
C      1  0.4802170000000  0.4257550000000  0.5799490000000 1.0
C      1  0.4161470000000  0.5167460000000  0.4286100000000 1.0
C      1  0.5624580000000  0.4909180000000  0.4284510000000 1.0
C      1  0.4063010000000  0.4984440000000  0.5672430000000 1.0
C      1  0.5790150000000  0.4233870000000  0.5191280000000 1.0
C      1  0.5018970000000  0.4248200000000  0.6034520000000 1.0
C      1  0.5810430000000  0.4777520000000  0.5645900000000 1.0
C      1  0.4493920000000  0.4279090000000  0.4914770000000 1.0
C      1  0.5728550000000  0.5774330000000  0.4880570000000 1.0
C      1  0.4354150000000  0.5851120000000  0.5067760000000 1.0
C      1  0.4911250000000  0.4418950000000  0.4369670000000 1.0
C      1  0.5033180000000  0.5721770000000  0.4036240000000 1.0
C      1  0.4908860000000  0.5624420000000  0.5802610000000 1.0
C      1  0.4108810000000  0.4854540000000  0.4314910000000 1.0
C      1  0.5753930000000  0.5199830000000  0.4294030000000 1.0
C      1  0.4210410000000  0.5262270000000  0.5613020000000 1.0
C      1  0.4945070000000  0.4629730000000  0.5977620000000 1.0
C      1  0.5811860000000  0.5057920000000  0.4663020000000 1.0
C      1  0.4749290000000  0.5880180000000  0.5018590000000 1.0
C      1  0.4880190000000  0.4744570000000  0.4153600000000 1.0
C      1  0.4946450000000  0.5339070000000  0.3987550000000 1.0
C      1  0.4910050000000  0.5227860000000  0.5846480000000 1.0
C      1  0.4056540000000  0.5172870000000  0.5262070000000 1.0
C      1  0.5798840000000  0.4881890000000  0.5255100000000 1.0
C      1  0.4087870000000  0.4976040000000  0.4689350000000 1.0
C      1  0.5343040000000  0.5839800000000  0.4918710000000 1.0
C      1  0.4850660000000  0.4155420000000  0.5021530000000 1.0
C      1  0.5430520000000  0.4076290000000  0.5212780000000 1.0
C      1  0.5058710000000  0.5203550000000  0.5865860000000 1.0
C      1  0.5769790000000  0.4915620000000  0.4652230000000 1.0
C      1  0.4830100000000  0.4125290000000  0.5169430000000 1.0
C      1  0.4808140000000  0.5328550000000  0.4035850000000 1.0
C      1  0.5020560000000  0.4751700000000  0.4104710000000 1.0
C      1  0.4816060000000  0.4637150000000  0.5906950000000 1.0
C      1  0.4035580000000  0.5027110000000  0.5275310000000 1.0
C      1  0.5744200000000  0.5022760000000  0.5260260000000 1.0
C      1  0.4098860000000  0.5125520000000  0.4676450000000 1.0
C      1  0.5427160000000  0.4024520000000  0.5074970000000 1.0
C      1  0.4758880000000  0.5865260000000  0.4870500000000 1.0
C      1  0.5326470000000  0.5821790000000  0.5066620000000 1.0
C      1  0.5206930000000  0.5809100000000  0.4899460000000 1.0
C      1  0.4890960000000  0.5088370000000  0.5840380000000 1.0
C      1  0.5800160000000  0.4889010000000  0.5114420000000 1.0
C      1  0.4882370000000  0.5834920000000  0.5030730000000 1.0
C      1  0.5289600000000  0.4092140000000  0.5211610000000 1.0
C      1  0.4989410000000  0.4154830000000  0.5043180000000 1.0
C      1  0.4963350000000  0.5198850000000  0.4003270000000 1.0
C      1  0.4856850000000  0.4875070000000  0.4103500000000 1.0
C      1  0.4975400000000  0.4761640000000  0.5937480000000 1.0
C      1  0.4108100000000  0.4987140000000  0.4827620000000 1.0
C      1  0.5815440000000  0.5046020000000  0.4803720000000 1.0
C      1  0.4068550000000  0.5161060000000  0.5122590000000 1.0
C      1  0.5292160000000  0.4066580000000  0.5064970000000 1.0
C      1  0.4835970000000  0.4776210000000  0.5888610000000 1.0
C      1  0.5759250000000  0.5031020000000  0.5120100000000 1.0
C      1  0.4969970000000  0.4124790000000  0.5185510000000 1.0
C      1  0.5192970000000  0.5782480000000  0.5043790000000 1.0
C      1  0.4891090000000  0.5817920000000  0.4884700000000 1.0
C      1  0.4999690000000  0.4885640000000  0.4064870000000 1.0
C      1  0.4820170000000  0.5188350000000  0.4038680000000 1.0
C      1  0.5033410000000  0.5065580000000  0.5870470000000 1.0
C      1  0.4117230000000  0.5133570000000  0.4814790000000 1.0
C      1  0.5790180000000  0.4900420000000  0.4791930000000 1.0
C      1  0.4060410000000  0.5013670000000  0.5135920000000 1.0
C      1  0.4026850000000  0.5624730000000  0.4946330000000 1.0
C      1  0.5981230000000  0.5474110000000  0.5005880000000 1.0
C      1  0.4137240000000  0.4521510000000  0.5088560000000 1.0
C      1  0.5960020000000  0.4440920000000  0.4847720000000 1.0
C      1  0.5462780000000  0.5158740000000  0.3954260000000 1.0
C      1  0.5140110000000  0.3998980000000  0.5679260000000 1.0
C      1  0.4406140000000  0.5005060000000  0.5947640000000 1.0
C      1  0.5484810000000  0.4782760000000  0.5969320000000 1.0
C      1  0.4353890000000  0.5032980000000  0.3995760000000 1.0
C      1  0.5168910000000  0.4094020000000  0.4571670000000 1.0
C      1  0.5077230000000  0.5934670000000  0.4431590000000 1.0
C      1  0.5043710000000  0.5900900000000  0.5496220000000 1.0
C      1  0.4534780000000  0.4332260000000  0.5414900000000 1.0
C      1  0.4459380000000  0.5576870000000  0.4514720000000 1.0
C      1  0.5694170000000  0.5685820000000  0.4406750000000 1.0
C      1  0.5718350000000  0.4547220000000  0.5537970000000 1.0
C      1  0.5340420000000  0.4534450000000  0.4343980000000 1.0
C      1  0.5348290000000  0.5404230000000  0.5612590000000 1.0
C      1  0.4295090000000  0.5714980000000  0.5479130000000 1.0
C      1  0.4623100000000  0.4510550000000  0.4689850000000 1.0
END
