TITL C240-205-final 447.140740493845 1000000 -1546.81121328105 0 0 240 (C1) n - 1
REM
REM in /home/chem/mssmkc/work/GAP20/Larger-Clusters/Only-C240/New/BUILD-ONLY/Try2-C540/GEC/DENE/Try2
REM
REM
REM
REM
REM
REM C240.cell (7b76b2ff5dca8e3921dd396d0edbb8b5)
REM
REM
REM
REM
REM
CELL 1.54180  100.00000  100.00000  100.00000   90.00000   90.00000   90.00000
LATT -1
SFAC C  
C      1  0.4486070000000  0.5196120000000  0.4835440000000 1.0
C      1  0.4807400000000  0.4876860000000  0.4557640000000 1.0
C      1  0.4554820000000  0.4610360000000  0.5084330000000 1.0
C      1  0.5363260000000  0.5376050000000  0.5151740000000 1.0
C      1  0.4921790000000  0.5441570000000  0.5296660000000 1.0
C      1  0.4669830000000  0.5187620000000  0.4645410000000 1.0
C      1  0.5069070000000  0.4529240000000  0.4690410000000 1.0
C      1  0.5425740000000  0.4726300000000  0.5078650000000 1.0
C      1  0.5133840000000  0.4519970000000  0.5170900000000 1.0
C      1  0.5083650000000  0.5096810000000  0.4459890000000 1.0
C      1  0.4513790000000  0.5186110000000  0.5164290000000 1.0
C      1  0.5572630000000  0.4936220000000  0.4886540000000 1.0
C      1  0.4825710000000  0.4489090000000  0.5191600000000 1.0
C      1  0.4687350000000  0.5058020000000  0.5475100000000 1.0
C      1  0.5514700000000  0.4814890000000  0.4847580000000 1.0
C      1  0.5135980000000  0.5504950000000  0.5204120000000 1.0
C      1  0.5362330000000  0.4902430000000  0.5485900000000 1.0
C      1  0.4816140000000  0.4849860000000  0.5482900000000 1.0
C      1  0.5055210000000  0.5479570000000  0.4658140000000 1.0
C      1  0.5178640000000  0.5147900000000  0.4548820000000 1.0
C      1  0.5335900000000  0.4945790000000  0.4566950000000 1.0
C      1  0.5190370000000  0.5094390000000  0.5467880000000 1.0
C      1  0.5456910000000  0.5411130000000  0.4917510000000 1.0
C      1  0.4809560000000  0.4612650000000  0.4633430000000 1.0
C      1  0.5527140000000  0.5177860000000  0.4867630000000 1.0
C      1  0.5558900000000  0.4935700000000  0.5159380000000 1.0
C      1  0.4591610000000  0.4772780000000  0.4776190000000 1.0
C      1  0.4432410000000  0.5070630000000  0.4862790000000 1.0
C      1  0.5463210000000  0.5412980000000  0.5049830000000 1.0
C      1  0.4638100000000  0.4668540000000  0.5195690000000 1.0
C      1  0.5067850000000  0.4560500000000  0.5293170000000 1.0
C      1  0.5319500000000  0.4825830000000  0.4649770000000 1.0
C      1  0.4916650000000  0.5469090000000  0.4679500000000 1.0
C      1  0.5237010000000  0.5399300000000  0.4796720000000 1.0
C      1  0.4601940000000  0.5412520000000  0.5150580000000 1.0
C      1  0.5356210000000  0.5338260000000  0.4834400000000 1.0
C      1  0.4820070000000  0.5152570000000  0.5504210000000 1.0
C      1  0.4564440000000  0.5283150000000  0.4936800000000 1.0
C      1  0.5069890000000  0.5565600000000  0.5092510000000 1.0
C      1  0.4789460000000  0.5252670000000  0.4592010000000 1.0
C      1  0.4468550000000  0.4832900000000  0.5157590000000 1.0
C      1  0.4476580000000  0.4945670000000  0.4928260000000 1.0
C      1  0.4935820000000  0.5080010000000  0.5550850000000 1.0
C      1  0.5408010000000  0.4737940000000  0.5296580000000 1.0
C      1  0.5512150000000  0.5183150000000  0.5167310000000 1.0
C      1  0.5056900000000  0.4442240000000  0.5081680000000 1.0
C      1  0.5203340000000  0.4748400000000  0.4609200000000 1.0
C      1  0.4557820000000  0.4603980000000  0.4951310000000 1.0
C      1  0.4927890000000  0.4528640000000  0.4686670000000 1.0
C      1  0.5145140000000  0.4785650000000  0.5562210000000 1.0
C      1  0.5426320000000  0.4729170000000  0.4944760000000 1.0
C      1  0.4895390000000  0.4440730000000  0.5077050000000 1.0
C      1  0.4607500000000  0.5384890000000  0.4832850000000 1.0
C      1  0.4726250000000  0.4570210000000  0.4762420000000 1.0
C      1  0.5379570000000  0.4633450000000  0.4834760000000 1.0
C      1  0.5381850000000  0.4619870000000  0.5178690000000 1.0
C      1  0.5060620000000  0.4894740000000  0.5579620000000 1.0
C      1  0.4476920000000  0.4945850000000  0.5077970000000 1.0
C      1  0.5061930000000  0.4433830000000  0.4929350000000 1.0
C      1  0.5187820000000  0.5292500000000  0.4570760000000 1.0
C      1  0.5190920000000  0.4618440000000  0.4658820000000 1.0
C      1  0.4945730000000  0.5072540000000  0.4496280000000 1.0
C      1  0.5418210000000  0.4761690000000  0.4730210000000 1.0
C      1  0.4804100000000  0.4701730000000  0.5483950000000 1.0
C      1  0.5267090000000  0.4559720000000  0.4786310000000 1.0
C      1  0.5282200000000  0.5470240000000  0.5209460000000 1.0
C      1  0.4715330000000  0.5449560000000  0.5221860000000 1.0
C      1  0.4937910000000  0.5553640000000  0.4914490000000 1.0
C      1  0.4479350000000  0.4829420000000  0.4852080000000 1.0
C      1  0.5142760000000  0.5358670000000  0.5404010000000 1.0
C      1  0.4815220000000  0.4600610000000  0.5386810000000 1.0
C      1  0.4768820000000  0.4733190000000  0.4569360000000 1.0
C      1  0.4817210000000  0.5386880000000  0.4602880000000 1.0
C      1  0.5158420000000  0.5377090000000  0.4675280000000 1.0
C      1  0.5515640000000  0.5062710000000  0.5097110000000 1.0
C      1  0.5030360000000  0.4853370000000  0.4441250000000 1.0
C      1  0.4641380000000  0.4651810000000  0.4837710000000 1.0
C      1  0.5504280000000  0.4809180000000  0.5184980000000 1.0
C      1  0.4861900000000  0.5481900000000  0.4821920000000 1.0
C      1  0.5140960000000  0.4790590000000  0.4481360000000 1.0
C      1  0.4905130000000  0.4437990000000  0.4924350000000 1.0
C      1  0.5201240000000  0.4728000000000  0.5437350000000 1.0
C      1  0.4906090000000  0.4917940000000  0.5568120000000 1.0
C      1  0.4839990000000  0.4480660000000  0.4807760000000 1.0
C      1  0.4624520000000  0.5067930000000  0.4571330000000 1.0
C      1  0.5139820000000  0.4481120000000  0.4821920000000 1.0
C      1  0.4577450000000  0.5260420000000  0.4722470000000 1.0
C      1  0.5219170000000  0.5241000000000  0.5433920000000 1.0
C      1  0.5281900000000  0.4522700000000  0.5182070000000 1.0
C      1  0.4850080000000  0.5170690000000  0.4485880000000 1.0
C      1  0.4437300000000  0.5078770000000  0.5126450000000 1.0
C      1  0.5415480000000  0.5219160000000  0.4782590000000 1.0
C      1  0.4570000000000  0.5288280000000  0.5072820000000 1.0
C      1  0.4848250000000  0.5510850000000  0.5178450000000 1.0
C      1  0.4923420000000  0.4930960000000  0.4512580000000 1.0
C      1  0.5101540000000  0.5571800000000  0.4939770000000 1.0
C      1  0.4768650000000  0.5240080000000  0.5392220000000 1.0
C      1  0.5076190000000  0.5035210000000  0.5509100000000 1.0
C      1  0.5204950000000  0.5533080000000  0.4854550000000 1.0
C      1  0.4916290000000  0.5560660000000  0.5065580000000 1.0
C      1  0.4711550000000  0.5476460000000  0.4816320000000 1.0
C      1  0.4748740000000  0.4608140000000  0.5243490000000 1.0
C      1  0.5351590000000  0.5225190000000  0.5352700000000 1.0
C      1  0.4528570000000  0.5219800000000  0.5307510000000 1.0
C      1  0.4625130000000  0.4796690000000  0.4640640000000 1.0
C      1  0.5058520000000  0.5410360000000  0.5295350000000 1.0
C      1  0.5394660000000  0.5250180000000  0.5224300000000 1.0
C      1  0.4623300000000  0.5186970000000  0.5405310000000 1.0
C      1  0.5525090000000  0.5062690000000  0.4946540000000 1.0
C      1  0.5396290000000  0.5165250000000  0.4657580000000 1.0
C      1  0.4933950000000  0.4522130000000  0.5315820000000 1.0
C      1  0.4554230000000  0.4776090000000  0.5266170000000 1.0
C      1  0.5319430000000  0.4797480000000  0.5387900000000 1.0
C      1  0.4662050000000  0.4932680000000  0.4562640000000 1.0
C      1  0.5297300000000  0.5076100000000  0.4599420000000 1.0
C      1  0.4700630000000  0.4923360000000  0.5432440000000 1.0
C      1  0.5163750000000  0.4602540000000  0.5395300000000 1.0
C      1  0.4794200000000  0.5366720000000  0.5340640000000 1.0
C      1  0.5324880000000  0.5031310000000  0.5500410000000 1.0
C      1  0.4590460000000  0.4835810000000  0.5389010000000 1.0
C      1  0.5199210000000  0.4356310000000  0.4725040000000 1.0
C      1  0.5621440000000  0.4713810000000  0.5237450000000 1.0
C      1  0.5536940000000  0.4675180000000  0.4686510000000 1.0
C      1  0.4555100000000  0.5266890000000  0.4438960000000 1.0
C      1  0.5292090000000  0.4434350000000  0.5293360000000 1.0
C      1  0.4769790000000  0.4463080000000  0.5452850000000 1.0
C      1  0.4688970000000  0.5560560000000  0.4700690000000 1.0
C      1  0.4388640000000  0.4662740000000  0.4703060000000 1.0
C      1  0.5302440000000  0.5218860000000  0.4358730000000 1.0
C      1  0.4878480000000  0.5558440000000  0.5384680000000 1.0
C      1  0.5206800000000  0.4318970000000  0.5294220000000 1.0
C      1  0.4617710000000  0.5138160000000  0.4446850000000 1.0
C      1  0.4740660000000  0.5188790000000  0.4394200000000 1.0
C      1  0.4680690000000  0.4704660000000  0.4442210000000 1.0
C      1  0.4780550000000  0.5672880000000  0.4698570000000 1.0
C      1  0.5256810000000  0.4796230000000  0.4398600000000 1.0
C      1  0.5299200000000  0.5295390000000  0.4479620000000 1.0
C      1  0.5629140000000  0.4721350000000  0.4792350000000 1.0
C      1  0.4674210000000  0.4449180000000  0.4673580000000 1.0
C      1  0.4326460000000  0.5306700000000  0.5223680000000 1.0
C      1  0.5306790000000  0.5283880000000  0.5557340000000 1.0
C      1  0.4363460000000  0.5287610000000  0.4777900000000 1.0
C      1  0.4443320000000  0.5334360000000  0.5319370000000 1.0
C      1  0.5582410000000  0.5440180000000  0.4710880000000 1.0
C      1  0.4779110000000  0.4361110000000  0.4717070000000 1.0
C      1  0.4629480000000  0.5114660000000  0.5604330000000 1.0
C      1  0.5082400000000  0.5723940000000  0.4947890000000 1.0
C      1  0.5364220000000  0.4884630000000  0.4438650000000 1.0
C      1  0.4456020000000  0.5342490000000  0.4676210000000 1.0
C      1  0.5443670000000  0.4763900000000  0.4451660000000 1.0
C      1  0.4691740000000  0.5570260000000  0.5317940000000 1.0
C      1  0.5214150000000  0.5481060000000  0.5439580000000 1.0
C      1  0.5309890000000  0.4440590000000  0.4699870000000 1.0
C      1  0.5051200000000  0.4924410000000  0.5735750000000 1.0
C      1  0.5414270000000  0.5224640000000  0.4527440000000 1.0
C      1  0.4569780000000  0.5232810000000  0.5546320000000 1.0
C      1  0.5632740000000  0.5268320000000  0.4828680000000 1.0
C      1  0.5600810000000  0.5353890000000  0.5315800000000 1.0
C      1  0.5624260000000  0.4599350000000  0.4866180000000 1.0
C      1  0.5756610000000  0.5072960000000  0.5097050000000 1.0
C      1  0.5180310000000  0.5632170000000  0.5314080000000 1.0
C      1  0.5412920000000  0.5149880000000  0.4404120000000 1.0
C      1  0.5126980000000  0.5601820000000  0.4632680000000 1.0
C      1  0.4918350000000  0.5725150000000  0.5056440000000 1.0
C      1  0.4775100000000  0.4369680000000  0.5283010000000 1.0
C      1  0.5580480000000  0.5402310000000  0.4848030000000 1.0
C      1  0.4238860000000  0.4947490000000  0.5073150000000 1.0
C      1  0.5530120000000  0.4654260000000  0.5336300000000 1.0
C      1  0.5334420000000  0.5575840000000  0.4648740000000 1.0
C      1  0.4379020000000  0.4726680000000  0.4834050000000 1.0
C      1  0.4405470000000  0.4685060000000  0.5316170000000 1.0
C      1  0.4361190000000  0.5406710000000  0.4855130000000 1.0
C      1  0.5428310000000  0.5238280000000  0.5477530000000 1.0
C      1  0.4942920000000  0.5084430000000  0.5706470000000 1.0
C      1  0.4572270000000  0.4767860000000  0.5513730000000 1.0
C      1  0.4558310000000  0.4747820000000  0.4513310000000 1.0
C      1  0.4865470000000  0.4400700000000  0.4609020000000 1.0
C      1  0.5409320000000  0.5125560000000  0.5568370000000 1.0
C      1  0.5581190000000  0.5412180000000  0.5127160000000 1.0
C      1  0.4305350000000  0.5074720000000  0.5069650000000 1.0
C      1  0.4473890000000  0.5447370000000  0.4780110000000 1.0
C      1  0.5129490000000  0.5598030000000  0.5437880000000 1.0
C      1  0.4942900000000  0.5715230000000  0.4915450000000 1.0
C      1  0.5696170000000  0.4942350000000  0.4956120000000 1.0
C      1  0.5074810000000  0.5063360000000  0.5754100000000 1.0
C      1  0.5039620000000  0.4920600000000  0.4315070000000 1.0
C      1  0.4917920000000  0.4948400000000  0.4245910000000 1.0
C      1  0.4422900000000  0.4599640000000  0.5143560000000 1.0
C      1  0.5222880000000  0.5614720000000  0.4737120000000 1.0
C      1  0.4433210000000  0.4554660000000  0.5279440000000 1.0
C      1  0.5559330000000  0.5470180000000  0.5255770000000 1.0
C      1  0.5686480000000  0.4948620000000  0.5098200000000 1.0
C      1  0.5512850000000  0.4568200000000  0.4785150000000 1.0
C      1  0.4434660000000  0.4544770000000  0.4755120000000 1.0
C      1  0.4578430000000  0.4853110000000  0.5630690000000 1.0
C      1  0.4881750000000  0.4395330000000  0.5381700000000 1.0
C      1  0.5438510000000  0.4692530000000  0.5582450000000 1.0
C      1  0.4812020000000  0.5631580000000  0.5278930000000 1.0
C      1  0.4686900000000  0.4786320000000  0.5679840000000 1.0
C      1  0.4365300000000  0.4730350000000  0.5179750000000 1.0
C      1  0.4361690000000  0.5406980000000  0.5139440000000 1.0
C      1  0.4237300000000  0.4937330000000  0.4935480000000 1.0
C      1  0.5137910000000  0.4408040000000  0.4605800000000 1.0
C      1  0.4743780000000  0.5205990000000  0.5622470000000 1.0
C      1  0.4686380000000  0.4698920000000  0.5565220000000 1.0
C      1  0.5321360000000  0.5198000000000  0.5661980000000 1.0
C      1  0.5053390000000  0.4274280000000  0.4937850000000 1.0
C      1  0.4306590000000  0.5062120000000  0.4927660000000 1.0
C      1  0.5082190000000  0.5059450000000  0.4320140000000 1.0
C      1  0.5614980000000  0.5285500000000  0.5188040000000 1.0
C      1  0.5378790000000  0.4820690000000  0.5601060000000 1.0
C      1  0.4910760000000  0.4275010000000  0.4932860000000 1.0
C      1  0.5620260000000  0.5311580000000  0.4682840000000 1.0
C      1  0.4681860000000  0.4814320000000  0.4351090000000 1.0
C      1  0.5146090000000  0.4362640000000  0.5408080000000 1.0
C      1  0.5625730000000  0.4597190000000  0.5154180000000 1.0
C      1  0.5762700000000  0.5070270000000  0.4959880000000 1.0
C      1  0.4849930000000  0.5606270000000  0.4598940000000 1.0
C      1  0.5257510000000  0.4761220000000  0.5647880000000 1.0
C      1  0.4431830000000  0.4602620000000  0.4884760000000 1.0
C      1  0.4905280000000  0.4941600000000  0.5720040000000 1.0
C      1  0.4948680000000  0.5081530000000  0.4257160000000 1.0
C      1  0.5249840000000  0.4495820000000  0.4580190000000 1.0
C      1  0.5047390000000  0.4285630000000  0.5082070000000 1.0
C      1  0.4754360000000  0.5496880000000  0.5425150000000 1.0
C      1  0.4669650000000  0.4409770000000  0.5368350000000 1.0
C      1  0.4903440000000  0.4286160000000  0.5073320000000 1.0
C      1  0.4759900000000  0.4485160000000  0.4563550000000 1.0
C      1  0.4584400000000  0.4872070000000  0.4435480000000 1.0
C      1  0.5235720000000  0.4478690000000  0.5417700000000 1.0
C      1  0.5298760000000  0.5540480000000  0.5335790000000 1.0
C      1  0.5057680000000  0.5725710000000  0.5089400000000 1.0
C      1  0.5249130000000  0.5562780000000  0.4544740000000 1.0
C      1  0.4665750000000  0.5320940000000  0.5605280000000 1.0
C      1  0.5318740000000  0.4634100000000  0.5619200000000 1.0
C      1  0.4674240000000  0.5318290000000  0.4395310000000 1.0
C      1  0.4478680000000  0.5432240000000  0.5222430000000 1.0
C      1  0.5515320000000  0.4552980000000  0.5228070000000 1.0
C      1  0.5340820000000  0.4682410000000  0.4411740000000 1.0
C      1  0.4740630000000  0.5509460000000  0.4574210000000 1.0
END
