TITL C540-414411 6.95244013323253 1000000 -3579.59586438394 0 0 540 (C1) n - 1
REM
REM in /home/chem/mssmkc/work/GAP20/Larger-Clusters/Only-C240/New/BUILD-ONLY/Try2-C540/GEC/DENE
REM
REM
REM
REM
REM
REM C540.cell (83668275d82f9ad52584f0923602c94a)
REM
REM
REM
REM
REM
CELL 1.54180  100.00000  100.00000  100.00000   90.00000   90.00000   90.00000
LATT -1
SFAC C  
C      1  0.5928780000000  0.4617900000000  0.4479950000000 1.0
C      1  0.4587760000000  0.5999520000000  0.5328410000000 1.0
C      1  0.4301100000000  0.4821430000000  0.5829210000000 1.0
C      1  0.5909660000000  0.5359240000000  0.5481210000000 1.0
C      1  0.5771080000000  0.5754660000000  0.4736890000000 1.0
C      1  0.5766010000000  0.5265220000000  0.4233720000000 1.0
C      1  0.4841370000000  0.5854630000000  0.4266830000000 1.0
C      1  0.4718190000000  0.5770210000000  0.5770720000000 1.0
C      1  0.4138710000000  0.5734670000000  0.4836460000000 1.0
C      1  0.5520960000000  0.5927440000000  0.5372770000000 1.0
C      1  0.5242720000000  0.6107960000000  0.5075120000000 1.0
C      1  0.5518080000000  0.4061750000000  0.4629860000000 1.0
C      1  0.4469930000000  0.5936910000000  0.4621220000000 1.0
C      1  0.4924680000000  0.5245560000000  0.3893150000000 1.0
C      1  0.4055450000000  0.5384030000000  0.4458100000000 1.0
C      1  0.5067810000000  0.4745840000000  0.3892090000000 1.0
C      1  0.4541330000000  0.4096550000000  0.5393690000000 1.0
C      1  0.6086330000000  0.4919070000000  0.4772630000000 1.0
C      1  0.4746850000000  0.6103910000000  0.4925420000000 1.0
C      1  0.4214800000000  0.5766450000000  0.5274320000000 1.0
C      1  0.4712400000000  0.4222640000000  0.4236360000000 1.0
C      1  0.4593410000000  0.4019710000000  0.4693400000000 1.0
C      1  0.5146810000000  0.4142840000000  0.4282050000000 1.0
C      1  0.5816670000000  0.5697360000000  0.5194360000000 1.0
C      1  0.5982440000000  0.4647370000000  0.5418120000000 1.0
C      1  0.4263720000000  0.5161900000000  0.4134020000000 1.0
C      1  0.4082830000000  0.4605650000000  0.5493620000000 1.0
C      1  0.5277680000000  0.5775170000000  0.4227150000000 1.0
C      1  0.5720560000000  0.4834810000000  0.4158310000000 1.0
C      1  0.3981580000000  0.4678580000000  0.4592170000000 1.0
C      1  0.5986170000000  0.5318640000000  0.4618800000000 1.0
C      1  0.4634200000000  0.4531680000000  0.5925930000000 1.0
C      1  0.3895710000000  0.4963280000000  0.5237970000000 1.0
C      1  0.4232060000000  0.5260340000000  0.5777490000000 1.0
C      1  0.5378220000000  0.5520490000000  0.5926410000000 1.0
C      1  0.6110700000000  0.5084080000000  0.5278900000000 1.0
C      1  0.5803580000000  0.4715620000000  0.5790260000000 1.0
C      1  0.5286260000000  0.4220350000000  0.5757130000000 1.0
C      1  0.5887990000000  0.4237460000000  0.4878010000000 1.0
C      1  0.4623290000000  0.5526840000000  0.4060690000000 1.0
C      1  0.3876280000000  0.5086870000000  0.4732030000000 1.0
C      1  0.5154300000000  0.5848650000000  0.5726790000000 1.0
C      1  0.5328050000000  0.5397700000000  0.3997170000000 1.0
C      1  0.5365480000000  0.4465730000000  0.4062270000000 1.0
C      1  0.5230110000000  0.3959660000000  0.4969750000000 1.0
C      1  0.5799510000000  0.4251180000000  0.5273550000000 1.0
C      1  0.4836170000000  0.4165900000000  0.5688480000000 1.0
C      1  0.4662670000000  0.4593530000000  0.3995310000000 1.0
C      1  0.4789680000000  0.3944520000000  0.5041700000000 1.0
C      1  0.5421480000000  0.3987740000000  0.5333130000000 1.0
C      1  0.5330460000000  0.4585920000000  0.6018090000000 1.0
C      1  0.5730250000000  0.5161590000000  0.5854420000000 1.0
C      1  0.4669760000000  0.5394760000000  0.6004060000000 1.0
C      1  0.4218910000000  0.4251260000000  0.4742900000000 1.0
C      1  0.4215820000000  0.4725930000000  0.4214830000000 1.0
C      1  0.4155760000000  0.4318050000000  0.5189870000000 1.0
C      1  0.3998100000000  0.5323260000000  0.5399070000000 1.0
C      1  0.5403270000000  0.6001700000000  0.4673180000000 1.0
C      1  0.4938420000000  0.4746250000000  0.6095770000000 1.0
C      1  0.5075940000000  0.5245170000000  0.6106740000000 1.0
C      1  0.5404810000000  0.5593830000000  0.4814060000000 1.0
C      1  0.4404600000000  0.5188600000000  0.4538810000000 1.0
C      1  0.4280360000000  0.5143240000000  0.4729870000000 1.0
C      1  0.5436460000000  0.4394730000000  0.5133590000000 1.0
C      1  0.4979060000000  0.5541060000000  0.5519410000000 1.0
C      1  0.5606100000000  0.4502000000000  0.4986460000000 1.0
C      1  0.5128600000000  0.4739010000000  0.4294280000000 1.0
C      1  0.5483990000000  0.4932910000000  0.5598360000000 1.0
C      1  0.5247700000000  0.5701580000000  0.5132030000000 1.0
C      1  0.5186090000000  0.5417030000000  0.4401350000000 1.0
C      1  0.5690490000000  0.5056470000000  0.4766070000000 1.0
C      1  0.5266800000000  0.4608650000000  0.5594320000000 1.0
C      1  0.4809010000000  0.5409680000000  0.5598400000000 1.0
C      1  0.5230620000000  0.5712500000000  0.4904570000000 1.0
C      1  0.4572230000000  0.4437170000000  0.4831170000000 1.0
C      1  0.4752310000000  0.4335120000000  0.4905200000000 1.0
C      1  0.4805870000000  0.4584560000000  0.4401120000000 1.0
C      1  0.5092290000000  0.5238120000000  0.4289460000000 1.0
C      1  0.4291860000000  0.5061040000000  0.5230230000000 1.0
C      1  0.5013040000000  0.5549710000000  0.4477940000000 1.0
C      1  0.5515160000000  0.4994630000000  0.4473370000000 1.0
C      1  0.4434600000000  0.4791180000000  0.5416510000000 1.0
C      1  0.4862890000000  0.5260080000000  0.4296130000000 1.0
C      1  0.4731650000000  0.5700150000000  0.4864820000000 1.0
C      1  0.5180640000000  0.5446220000000  0.5580490000000 1.0
C      1  0.4298530000000  0.4815450000000  0.5209620000000 1.0
C      1  0.4572560000000  0.5594280000000  0.5184660000000 1.0
C      1  0.4468090000000  0.4988920000000  0.4442140000000 1.0
C      1  0.5693070000000  0.5055730000000  0.5293650000000 1.0
C      1  0.4815020000000  0.5452160000000  0.4413860000000 1.0
C      1  0.5174670000000  0.4549190000000  0.4415590000000 1.0
C      1  0.5583270000000  0.4772910000000  0.5453260000000 1.0
C      1  0.4899840000000  0.5229240000000  0.5714280000000 1.0
C      1  0.4442870000000  0.4533390000000  0.5001460000000 1.0
C      1  0.4383470000000  0.5172070000000  0.5405700000000 1.0
C      1  0.5154290000000  0.4781270000000  0.5713930000000 1.0
C      1  0.5521650000000  0.5500930000000  0.4987390000000 1.0
C      1  0.4477150000000  0.5005310000000  0.5511270000000 1.0
C      1  0.4731340000000  0.4356620000000  0.5130510000000 1.0
C      1  0.5593270000000  0.5165310000000  0.4591470000000 1.0
C      1  0.4897960000000  0.4759190000000  0.4286090000000 1.0
C      1  0.4919550000000  0.4748880000000  0.5685340000000 1.0
C      1  0.4539370000000  0.5583690000000  0.4813050000000 1.0
C      1  0.4386800000000  0.4818750000000  0.4574000000000 1.0
C      1  0.5697900000000  0.4918280000000  0.5285490000000 1.0
C      1  0.4977430000000  0.4450690000000  0.4484590000000 1.0
C      1  0.5128020000000  0.5255860000000  0.5698710000000 1.0
C      1  0.5516550000000  0.4458500000000  0.4768740000000 1.0
C      1  0.4273100000000  0.4916310000000  0.4750060000000 1.0
C      1  0.5567140000000  0.4782470000000  0.4565330000000 1.0
C      1  0.4537930000000  0.4480300000000  0.5218050000000 1.0
C      1  0.5683470000000  0.4809720000000  0.4772310000000 1.0
C      1  0.5424580000000  0.5567570000000  0.5192210000000 1.0
C      1  0.5065770000000  0.4483910000000  0.5523610000000 1.0
C      1  0.4440880000000  0.5518450000000  0.5010150000000 1.0
C      1  0.5306190000000  0.4350400000000  0.4843730000000 1.0
C      1  0.4858220000000  0.4566610000000  0.5576410000000 1.0
C      1  0.5562060000000  0.5127880000000  0.5472980000000 1.0
C      1  0.5323760000000  0.4339900000000  0.5078840000000 1.0
C      1  0.4751370000000  0.5708230000000  0.5093730000000 1.0
C      1  0.5308890000000  0.4076280000000  0.5334090000000 1.0
C      1  0.5130490000000  0.5153510000000  0.6011070000000 1.0
C      1  0.5356580000000  0.4303050000000  0.5665280000000 1.0
C      1  0.5283880000000  0.5924270000000  0.4663330000000 1.0
C      1  0.5799570000000  0.4562580000000  0.4503430000000 1.0
C      1  0.4579900000000  0.5495240000000  0.4192970000000 1.0
C      1  0.4291490000000  0.5659900000000  0.5329940000000 1.0
C      1  0.4502020000000  0.5804610000000  0.4578290000000 1.0
C      1  0.4320440000000  0.4669480000000  0.4293300000000 1.0
C      1  0.4662890000000  0.5277350000000  0.5924130000000 1.0
C      1  0.4160990000000  0.5596280000000  0.4862430000000 1.0
C      1  0.4655400000000  0.4712930000000  0.4073190000000 1.0
C      1  0.5333780000000  0.5279720000000  0.4077320000000 1.0
C      1  0.5126910000000  0.4172820000000  0.4419720000000 1.0
C      1  0.4706020000000  0.5919860000000  0.5335560000000 1.0
C      1  0.4866320000000  0.5830780000000  0.4405320000000 1.0
C      1  0.5355210000000  0.4708610000000  0.5953870000000 1.0
C      1  0.5594990000000  0.5120790000000  0.5844210000000 1.0
C      1  0.5797510000000  0.5556470000000  0.5166820000000 1.0
C      1  0.4211680000000  0.4550860000000  0.5461760000000 1.0
C      1  0.4576570000000  0.4228590000000  0.5444140000000 1.0
C      1  0.5121440000000  0.4837430000000  0.3987050000000 1.0
C      1  0.5715680000000  0.4358790000000  0.5324020000000 1.0
C      1  0.5700220000000  0.4645470000000  0.5726760000000 1.0
C      1  0.5145470000000  0.4054210000000  0.4907470000000 1.0
C      1  0.5333270000000  0.5698380000000  0.4333570000000 1.0
C      1  0.4708610000000  0.4103940000000  0.4681510000000 1.0
C      1  0.5486790000000  0.5795760000000  0.5413480000000 1.0
C      1  0.4656290000000  0.4303730000000  0.4339550000000 1.0
C      1  0.4892530000000  0.4039870000000  0.5081800000000 1.0
C      1  0.5150160000000  0.6012730000000  0.5126930000000 1.0
C      1  0.4067860000000  0.5321230000000  0.5272830000000 1.0
C      1  0.4401280000000  0.5134870000000  0.4160370000000 1.0
C      1  0.5417810000000  0.5482930000000  0.5794740000000 1.0
C      1  0.5901520000000  0.4641900000000  0.5297900000000 1.0
C      1  0.5581320000000  0.4859480000000  0.4184830000000 1.0
C      1  0.4589790000000  0.4571170000000  0.5792670000000 1.0
C      1  0.5504150000000  0.4191350000000  0.4573530000000 1.0
C      1  0.5658000000000  0.5318760000000  0.4311370000000 1.0
C      1  0.4061340000000  0.4673260000000  0.4710860000000 1.0
C      1  0.4439970000000  0.4849230000000  0.5800010000000 1.0
C      1  0.5691860000000  0.5651810000000  0.4677630000000 1.0
C      1  0.5991330000000  0.4855190000000  0.4856830000000 1.0
C      1  0.5906010000000  0.5318410000000  0.4737290000000 1.0
C      1  0.4165460000000  0.4456880000000  0.5153570000000 1.0
C      1  0.5774230000000  0.5394930000000  0.5452040000000 1.0
C      1  0.4295230000000  0.4356880000000  0.4681810000000 1.0
C      1  0.3971190000000  0.5138380000000  0.4824240000000 1.0
C      1  0.5878410000000  0.4376770000000  0.4884100000000 1.0
C      1  0.4892630000000  0.4839690000000  0.5997030000000 1.0
C      1  0.6016150000000  0.5115980000000  0.5178810000000 1.0
C      1  0.4660810000000  0.5693270000000  0.5665160000000 1.0
C      1  0.3978370000000  0.4894010000000  0.5147120000000 1.0
C      1  0.4187050000000  0.5425810000000  0.4493570000000 1.0
C      1  0.5409360000000  0.4499480000000  0.4194120000000 1.0
C      1  0.4334110000000  0.5318780000000  0.5695510000000 1.0
C      1  0.4837650000000  0.6007700000000  0.4871880000000 1.0
C      1  0.4870260000000  0.5155230000000  0.3989280000000 1.0
C      1  0.5124980000000  0.5824360000000  0.5589340000000 1.0
C      1  0.4871060000000  0.4194500000000  0.5551060000000 1.0
C      1  0.4373190000000  0.4360030000000  0.5488920000000 1.0
C      1  0.5720650000000  0.4466860000000  0.5553570000000 1.0
C      1  0.5952590000000  0.4740300000000  0.5074170000000 1.0
C      1  0.4338310000000  0.5624110000000  0.4516730000000 1.0
C      1  0.4923940000000  0.4109620000000  0.4547590000000 1.0
C      1  0.4090440000000  0.5463170000000  0.5064360000000 1.0
C      1  0.4759290000000  0.5054760000000  0.5985590000000 1.0
C      1  0.4528420000000  0.4928560000000  0.4093300000000 1.0
C      1  0.4932910000000  0.4062240000000  0.4775340000000 1.0
C      1  0.4561610000000  0.4386360000000  0.5632590000000 1.0
C      1  0.4012580000000  0.4652840000000  0.5133870000000 1.0
C      1  0.4521230000000  0.5657220000000  0.4376150000000 1.0
C      1  0.5470510000000  0.4334320000000  0.4373290000000 1.0
C      1  0.4887540000000  0.4089010000000  0.5327070000000 1.0
C      1  0.5641490000000  0.5608530000000  0.5460590000000 1.0
C      1  0.5127930000000  0.5942560000000  0.5366960000000 1.0
C      1  0.5470850000000  0.5645460000000  0.5614180000000 1.0
C      1  0.4657580000000  0.4856140000000  0.5919460000000 1.0
C      1  0.5951710000000  0.4611670000000  0.4874890000000 1.0
C      1  0.5086780000000  0.4121040000000  0.5448720000000 1.0
C      1  0.4552220000000  0.5059620000000  0.5876140000000 1.0
C      1  0.5673860000000  0.5498510000000  0.4483270000000 1.0
C      1  0.5259800000000  0.4935610000000  0.6011010000000 1.0
C      1  0.5094970000000  0.4059760000000  0.5225380000000 1.0
C      1  0.4472020000000  0.4471770000000  0.4312670000000 1.0
C      1  0.5961030000000  0.5226250000000  0.4961500000000 1.0
C      1  0.5670890000000  0.4350580000000  0.4490020000000 1.0
C      1  0.5480480000000  0.4920660000000  0.5933460000000 1.0
C      1  0.3995050000000  0.4770520000000  0.4931400000000 1.0
C      1  0.5547010000000  0.4452780000000  0.5706980000000 1.0
C      1  0.4478490000000  0.5522020000000  0.5683850000000 1.0
C      1  0.4373220000000  0.5481980000000  0.4334870000000 1.0
C      1  0.5361910000000  0.4857810000000  0.4058080000000 1.0
C      1  0.5875970000000  0.5444200000000  0.4952840000000 1.0
C      1  0.5615040000000  0.4514750000000  0.4337080000000 1.0
C      1  0.4628770000000  0.5135210000000  0.4054660000000 1.0
C      1  0.4094890000000  0.4558840000000  0.4934490000000 1.0
C      1  0.5454120000000  0.5063780000000  0.4112880000000 1.0
C      1  0.5056580000000  0.5986180000000  0.4750740000000 1.0
C      1  0.4379060000000  0.4536420000000  0.5646270000000 1.0
C      1  0.5370250000000  0.5130450000000  0.5943760000000 1.0
C      1  0.5242350000000  0.5054060000000  0.4016290000000 1.0
C      1  0.5541620000000  0.4328340000000  0.5502840000000 1.0
C      1  0.5602510000000  0.5451080000000  0.5628490000000 1.0
C      1  0.4042170000000  0.5377340000000  0.4851010000000 1.0
C      1  0.4920640000000  0.5893300000000  0.5461430000000 1.0
C      1  0.4747320000000  0.4938420000000  0.4012960000000 1.0
C      1  0.4459870000000  0.5679390000000  0.5514100000000 1.0
C      1  0.5911370000000  0.5337360000000  0.5157470000000 1.0
C      1  0.4309930000000  0.5502080000000  0.5525030000000 1.0
C      1  0.5528710000000  0.5680550000000  0.4489280000000 1.0
C      1  0.4009630000000  0.5247340000000  0.5042420000000 1.0
C      1  0.4461400000000  0.4327340000000  0.4495190000000 1.0
C      1  0.5070150000000  0.5900730000000  0.4534150000000 1.0
C      1  0.5941160000000  0.4509350000000  0.5083760000000 1.0
C      1  0.4932000000000  0.5982160000000  0.5246110000000 1.0
C      1  0.5514240000000  0.5525360000000  0.4316100000000 1.0
C      1  0.4298980000000  0.4491430000000  0.4468370000000 1.0
C      1  0.4861680000000  0.5940230000000  0.4631060000000 1.0
C      1  0.5131540000000  0.4099750000000  0.4659630000000 1.0
C      1  0.4854440000000  0.4086320000000  0.4664350000000 1.0
C      1  0.5674960000000  0.5488700000000  0.5513000000000 1.0
C      1  0.5485470000000  0.5059070000000  0.5917960000000 1.0
C      1  0.4851710000000  0.5939290000000  0.5351200000000 1.0
C      1  0.5244250000000  0.4916410000000  0.4011490000000 1.0
C      1  0.4918680000000  0.5985910000000  0.4749560000000 1.0
C      1  0.5058960000000  0.5893260000000  0.5475580000000 1.0
C      1  0.3997570000000  0.5257290000000  0.4905520000000 1.0
C      1  0.4086810000000  0.4554200000000  0.5074850000000 1.0
C      1  0.5368240000000  0.4853730000000  0.5976960000000 1.0
C      1  0.4369450000000  0.5451230000000  0.5640040000000 1.0
C      1  0.5347310000000  0.5133570000000  0.4060700000000 1.0
C      1  0.4640280000000  0.4858880000000  0.4052710000000 1.0
C      1  0.4347140000000  0.4388040000000  0.4545560000000 1.0
C      1  0.5138110000000  0.5944860000000  0.4645730000000 1.0
C      1  0.5637690000000  0.5615620000000  0.4545850000000 1.0
C      1  0.4653210000000  0.5130380000000  0.5937550000000 1.0
C      1  0.5488850000000  0.4353320000000  0.5628740000000 1.0
C      1  0.5618430000000  0.5450470000000  0.4365460000000 1.0
C      1  0.4768430000000  0.4917800000000  0.5973920000000 1.0
C      1  0.3983950000000  0.4771500000000  0.5067820000000 1.0
C      1  0.5701840000000  0.4473200000000  0.4438660000000 1.0
C      1  0.4946860000000  0.4127180000000  0.5443100000000 1.0
C      1  0.5935350000000  0.4494410000000  0.4946630000000 1.0
C      1  0.5502430000000  0.4445920000000  0.4296040000000 1.0
C      1  0.5468140000000  0.4925620000000  0.4113820000000 1.0
C      1  0.5162610000000  0.4074990000000  0.5343780000000 1.0
C      1  0.5972960000000  0.5229330000000  0.5098920000000 1.0
C      1  0.4516060000000  0.5067170000000  0.4095520000000 1.0
C      1  0.4502700000000  0.4499390000000  0.5693240000000 1.0
C      1  0.5504090000000  0.5530340000000  0.5684630000000 1.0
C      1  0.4042930000000  0.4662280000000  0.4858030000000 1.0
C      1  0.4525360000000  0.4361390000000  0.4377840000000 1.0
C      1  0.5069560000000  0.5988590000000  0.5249050000000 1.0
C      1  0.5921010000000  0.5334110000000  0.4884150000000 1.0
C      1  0.5463130000000  0.5640620000000  0.4375040000000 1.0
C      1  0.4961000000000  0.4053430000000  0.5212670000000 1.0
C      1  0.5974250000000  0.4733960000000  0.4937350000000 1.0
C      1  0.5870270000000  0.5449810000000  0.5093140000000 1.0
C      1  0.4047730000000  0.5348870000000  0.5128410000000 1.0
C      1  0.4529540000000  0.5637430000000  0.5625440000000 1.0
C      1  0.4931740000000  0.5897880000000  0.4520060000000 1.0
C      1  0.5552490000000  0.4282520000000  0.4471200000000 1.0
C      1  0.5931840000000  0.4626350000000  0.5153780000000 1.0
C      1  0.4358880000000  0.4539470000000  0.4352340000000 1.0
C      1  0.5254050000000  0.5072490000000  0.5994640000000 1.0
C      1  0.5062580000000  0.4117800000000  0.4540830000000 1.0
C      1  0.4449990000000  0.5701190000000  0.4485820000000 1.0
C      1  0.5663420000000  0.4516210000000  0.5669320000000 1.0
C      1  0.4316530000000  0.4475710000000  0.5536780000000 1.0
C      1  0.5537400000000  0.5688990000000  0.5501750000000 1.0
C      1  0.4547870000000  0.4920060000000  0.5872310000000 1.0
C      1  0.4500420000000  0.4319800000000  0.5530550000000 1.0
C      1  0.4747030000000  0.5076320000000  0.4010960000000 1.0
C      1  0.5067920000000  0.4065440000000  0.4780840000000 1.0
C      1  0.4091530000000  0.5481840000000  0.4925880000000 1.0
C      1  0.4487450000000  0.5548600000000  0.4295910000000 1.0
C      1  0.4293720000000  0.5515570000000  0.4444200000000 1.0
C      1  0.4347480000000  0.5618120000000  0.5460040000000 1.0
C      1  0.5662000000000  0.4388480000000  0.5458950000000 1.0
C      1  0.5247720000000  0.5455480000000  0.5911880000000 1.0
C      1  0.4299840000000  0.4295400000000  0.5180210000000 1.0
C      1  0.4845810000000  0.4279040000000  0.4256570000000 1.0
C      1  0.5238290000000  0.4534490000000  0.4081030000000 1.0
C      1  0.5269120000000  0.4527930000000  0.5896320000000 1.0
C      1  0.4519560000000  0.4123340000000  0.4764950000000 1.0
C      1  0.4277860000000  0.4278730000000  0.4873390000000 1.0
C      1  0.5887700000000  0.5240660000000  0.4544210000000 1.0
C      1  0.5745990000000  0.5132000000000  0.4290660000000 1.0
C      1  0.4071300000000  0.5255410000000  0.4525460000000 1.0
C      1  0.4982650000000  0.4682250000000  0.3992850000000 1.0
C      1  0.4113500000000  0.4737700000000  0.5438110000000 1.0
C      1  0.5894760000000  0.5220610000000  0.5441040000000 1.0
C      1  0.6023870000000  0.4978740000000  0.5334560000000 1.0
C      1  0.4772010000000  0.4553580000000  0.5896880000000 1.0
C      1  0.4018470000000  0.5024780000000  0.5302810000000 1.0
C      1  0.5897010000000  0.4738630000000  0.4558850000000 1.0
C      1  0.4681100000000  0.6003860000000  0.5009420000000 1.0
C      1  0.5028400000000  0.4683690000000  0.6000230000000 1.0
C      1  0.4739000000000  0.4523900000000  0.4098830000000 1.0
C      1  0.5898470000000  0.4737040000000  0.5486530000000 1.0
C      1  0.4282230000000  0.5762310000000  0.4830250000000 1.0
C      1  0.5706770000000  0.5734500000000  0.4866470000000 1.0
C      1  0.4253080000000  0.5128280000000  0.5717440000000 1.0
C      1  0.4261560000000  0.4826680000000  0.5691840000000 1.0
C      1  0.4851030000000  0.5713130000000  0.5748070000000 1.0
C      1  0.4751280000000  0.5459020000000  0.4079940000000 1.0
C      1  0.4097130000000  0.5240220000000  0.5464050000000 1.0
C      1  0.5158440000000  0.4288480000000  0.5726700000000 1.0
C      1  0.5750910000000  0.4827700000000  0.4300610000000 1.0
C      1  0.4231740000000  0.5168570000000  0.4276620000000 1.0
C      1  0.5442980000000  0.5914600000000  0.5248860000000 1.0
C      1  0.5306610000000  0.6008600000000  0.4988790000000 1.0
C      1  0.5501270000000  0.4084290000000  0.5256750000000 1.0
C      1  0.4563450000000  0.4136550000000  0.5258090000000 1.0
C      1  0.4698330000000  0.4046540000000  0.5001810000000 1.0
C      1  0.4517600000000  0.5897590000000  0.5250630000000 1.0
C      1  0.4082490000000  0.4755220000000  0.4519710000000 1.0
C      1  0.4239020000000  0.4859550000000  0.4270080000000 1.0
C      1  0.5466210000000  0.4107560000000  0.4760360000000 1.0
C      1  0.5315450000000  0.4057560000000  0.5037340000000 1.0
C      1  0.5741110000000  0.4245550000000  0.5146450000000 1.0
C      1  0.5162180000000  0.5705610000000  0.5756490000000 1.0
C      1  0.4535400000000  0.5917360000000  0.4750440000000 1.0
C      1  0.4991040000000  0.5308640000000  0.6006670000000 1.0
C      1  0.5251290000000  0.5469650000000  0.4098700000000 1.0
C      1  0.4272640000000  0.5746350000000  0.5141400000000 1.0
C      1  0.4851880000000  0.4302580000000  0.5731760000000 1.0
C      1  0.5008920000000  0.5310290000000  0.3993700000000 1.0
C      1  0.5678340000000  0.5730580000000  0.5173000000000 1.0
C      1  0.5153340000000  0.4285150000000  0.4246350000000 1.0
C      1  0.5144130000000  0.5718980000000  0.4248740000000 1.0
C      1  0.4835350000000  0.5711560000000  0.4237320000000 1.0
C      1  0.4746660000000  0.5466260000000  0.5901340000000 1.0
C      1  0.5471270000000  0.5898020000000  0.4750560000000 1.0
C      1  0.5753610000000  0.4845510000000  0.5736370000000 1.0
C      1  0.5747480000000  0.5155420000000  0.5708030000000 1.0
C      1  0.5739650000000  0.4228640000000  0.4844100000000 1.0
C      1  0.5980380000000  0.5001730000000  0.4710190000000 1.0
C      1  0.3976830000000  0.4998330000000  0.4671720000000 1.0
C      1  0.5210010000000  0.5772990000000  0.5023310000000 1.0
C      1  0.4420970000000  0.4862940000000  0.4450130000000 1.0
C      1  0.4432230000000  0.5118850000000  0.4426640000000 1.0
C      1  0.5264210000000  0.4290330000000  0.4957230000000 1.0
C      1  0.4798720000000  0.5319350000000  0.5698060000000 1.0
C      1  0.5365900000000  0.4291070000000  0.5200480000000 1.0
C      1  0.5107650000000  0.4436810000000  0.4447060000000 1.0
C      1  0.5681540000000  0.4793600000000  0.5361550000000 1.0
C      1  0.5532190000000  0.5527430000000  0.5120030000000 1.0
C      1  0.4973290000000  0.5217860000000  0.4229330000000 1.0
C      1  0.5658030000000  0.4735920000000  0.4657650000000 1.0
C      1  0.5026890000000  0.4783860000000  0.5762580000000 1.0
C      1  0.5021560000000  0.5214910000000  0.5771440000000 1.0
C      1  0.5348040000000  0.5677180000000  0.5218670000000 1.0
C      1  0.4784760000000  0.4286700000000  0.5026900000000 1.0
C      1  0.4634690000000  0.4380470000000  0.5222700000000 1.0
C      1  0.5017360000000  0.4778850000000  0.4226830000000 1.0
C      1  0.4780730000000  0.5365170000000  0.4315600000000 1.0
C      1  0.4343400000000  0.4746700000000  0.5323510000000 1.0
C      1  0.5195390000000  0.5325560000000  0.4302600000000 1.0
C      1  0.5686840000000  0.5168340000000  0.4688660000000 1.0
C      1  0.4429300000000  0.5131610000000  0.5526290000000 1.0
C      1  0.4883470000000  0.5565080000000  0.4440870000000 1.0
C      1  0.4426020000000  0.5557140000000  0.4881020000000 1.0
C      1  0.4852610000000  0.5533970000000  0.5565440000000 1.0
C      1  0.4452880000000  0.4871950000000  0.5524860000000 1.0
C      1  0.4773030000000  0.5767930000000  0.4974870000000 1.0
C      1  0.4285430000000  0.4813240000000  0.4662800000000 1.0
C      1  0.5531470000000  0.5064770000000  0.5591070000000 1.0
C      1  0.5139440000000  0.5540900000000  0.4432030000000 1.0
C      1  0.4852130000000  0.4461590000000  0.4434790000000 1.0
C      1  0.5798280000000  0.4997660000000  0.5226800000000 1.0
C      1  0.5213600000000  0.5357780000000  0.5678330000000 1.0
C      1  0.4659620000000  0.4337040000000  0.4806110000000 1.0
C      1  0.4238300000000  0.4941100000000  0.5197430000000 1.0
C      1  0.4818590000000  0.4659490000000  0.5666560000000 1.0
C      1  0.5319770000000  0.5697690000000  0.4803270000000 1.0
C      1  0.4289690000000  0.5171520000000  0.5308370000000 1.0
C      1  0.4430690000000  0.4512010000000  0.5136560000000 1.0
C      1  0.5744670000000  0.4934920000000  0.4793560000000 1.0
C      1  0.5208900000000  0.4632350000000  0.4314620000000 1.0
C      1  0.4934450000000  0.4459700000000  0.5543620000000 1.0
C      1  0.4449190000000  0.5561380000000  0.5137710000000 1.0
C      1  0.4210730000000  0.5034070000000  0.4770250000000 1.0
C      1  0.5655170000000  0.5162960000000  0.5382240000000 1.0
C      1  0.4794350000000  0.4672610000000  0.4299710000000 1.0
C      1  0.5108530000000  0.5557640000000  0.5555470000000 1.0
C      1  0.5572160000000  0.4437800000000  0.5102330000000 1.0
C      1  0.4304590000000  0.5223040000000  0.4623800000000 1.0
C      1  0.5557700000000  0.5123580000000  0.4467610000000 1.0
C      1  0.4449500000000  0.4470440000000  0.4880470000000 1.0
C      1  0.5550620000000  0.4863590000000  0.4457240000000 1.0
C      1  0.5524760000000  0.5552220000000  0.4862330000000 1.0
C      1  0.5263940000000  0.4698160000000  0.5701050000000 1.0
C      1  0.4662700000000  0.5694180000000  0.5195530000000 1.0
C      1  0.5629420000000  0.4467400000000  0.4852070000000 1.0
C      1  0.5194500000000  0.4490840000000  0.5567050000000 1.0
C      1  0.5544330000000  0.4808490000000  0.5582550000000 1.0
C      1  0.5413130000000  0.4364220000000  0.4757040000000 1.0
C      1  0.4627810000000  0.5681410000000  0.4780930000000 1.0
C      1  0.4172220000000  0.5251340000000  0.5337200000000 1.0
C      1  0.5433350000000  0.4234540000000  0.4690710000000 1.0
C      1  0.5616610000000  0.5184430000000  0.4345530000000 1.0
C      1  0.4173540000000  0.4721380000000  0.4632150000000 1.0
C      1  0.4307420000000  0.4445060000000  0.5176930000000 1.0
C      1  0.4408390000000  0.4826450000000  0.5660010000000 1.0
C      1  0.5233950000000  0.4359270000000  0.5619480000000 1.0
C      1  0.5161900000000  0.4310260000000  0.4392140000000 1.0
C      1  0.5672060000000  0.4377360000000  0.5188070000000 1.0
C      1  0.4628640000000  0.4217830000000  0.4723010000000 1.0
C      1  0.4812950000000  0.4141450000000  0.5021190000000 1.0
C      1  0.4629840000000  0.5806720000000  0.5286410000000 1.0
C      1  0.5389430000000  0.4180460000000  0.5280050000000 1.0
C      1  0.5003020000000  0.4800210000000  0.5909580000000 1.0
C      1  0.5800050000000  0.4710650000000  0.5372560000000 1.0
C      1  0.5027510000000  0.5194840000000  0.5918020000000 1.0
C      1  0.5357570000000  0.5809350000000  0.4713130000000 1.0
C      1  0.4094560000000  0.4967260000000  0.5190350000000 1.0
C      1  0.5215470000000  0.4155950000000  0.4982940000000 1.0
C      1  0.5741930000000  0.4374140000000  0.4824750000000 1.0
C      1  0.5161330000000  0.5685220000000  0.5609240000000 1.0
C      1  0.5389320000000  0.5788560000000  0.5306840000000 1.0
C      1  0.4794510000000  0.5657860000000  0.5622180000000 1.0
C      1  0.4330800000000  0.4405780000000  0.4815070000000 1.0
C      1  0.4194280000000  0.5313770000000  0.4584850000000 1.0
C      1  0.5630780000000  0.4771230000000  0.5697100000000 1.0
C      1  0.5797630000000  0.5262770000000  0.4660840000000 1.0
C      1  0.4869720000000  0.4333060000000  0.5586140000000 1.0
C      1  0.4376460000000  0.5186730000000  0.5654190000000 1.0
C      1  0.5759070000000  0.5263870000000  0.5392680000000 1.0
C      1  0.4232790000000  0.4667690000000  0.5378180000000 1.0
C      1  0.5285810000000  0.5357350000000  0.4189800000000 1.0
C      1  0.5890060000000  0.4947780000000  0.4815400000000 1.0
C      1  0.5603760000000  0.4822250000000  0.4323850000000 1.0
C      1  0.4703850000000  0.4638090000000  0.4187490000000 1.0
C      1  0.4063250000000  0.5032740000000  0.4787380000000 1.0
C      1  0.4378610000000  0.5171110000000  0.4298910000000 1.0
C      1  0.4831130000000  0.5691760000000  0.4384580000000 1.0
C      1  0.4325820000000  0.5618850000000  0.5195700000000 1.0
C      1  0.5326100000000  0.4646090000000  0.5824590000000 1.0
C      1  0.5938960000000  0.4997730000000  0.5211590000000 1.0
C      1  0.4790940000000  0.4338060000000  0.4381310000000 1.0
C      1  0.4721550000000  0.4623510000000  0.5772400000000 1.0
C      1  0.4709920000000  0.5354620000000  0.5811150000000 1.0
C      1  0.4794750000000  0.5914660000000  0.4974530000000 1.0
C      1  0.4300240000000  0.5614700000000  0.4827740000000 1.0
C      1  0.5198770000000  0.5664490000000  0.4375640000000 1.0
C      1  0.5304450000000  0.5393280000000  0.5789800000000 1.0
C      1  0.5191610000000  0.5920100000000  0.5023330000000 1.0
C      1  0.4592370000000  0.5793630000000  0.4691000000000 1.0
C      1  0.4691150000000  0.5402970000000  0.4203820000000 1.0
C      1  0.4364650000000  0.4803590000000  0.4326540000000 1.0
C      1  0.5298750000000  0.4592610000000  0.4204010000000 1.0
C      1  0.5657020000000  0.5581370000000  0.5177180000000 1.0
C      1  0.5599780000000  0.5134120000000  0.5701440000000 1.0
C      1  0.5651240000000  0.5608560000000  0.4809650000000 1.0
C      1  0.5777370000000  0.4662820000000  0.4607770000000 1.0
C      1  0.4619520000000  0.4263900000000  0.5311990000000 1.0
C      1  0.4973140000000  0.5196610000000  0.4082490000000 1.0
C      1  0.5017330000000  0.4797480000000  0.4079770000000 1.0
C      1  0.5667330000000  0.4150690000000  0.5070290000000 1.0
C      1  0.4882820000000  0.5512350000000  0.5898190000000 1.0
C      1  0.4935990000000  0.4376450000000  0.5822230000000 1.0
C      1  0.5617520000000  0.5817330000000  0.4942270000000 1.0
C      1  0.5927750000000  0.4995310000000  0.4576810000000 1.0
C      1  0.5004620000000  0.5441850000000  0.4051100000000 1.0
C      1  0.4367090000000  0.5835410000000  0.4920000000000 1.0
C      1  0.4549520000000  0.5946650000000  0.5004260000000 1.0
C      1  0.4154180000000  0.5081970000000  0.4361310000000 1.0
C      1  0.4932460000000  0.5625550000000  0.5827750000000 1.0
C      1  0.4483600000000  0.5908090000000  0.4884260000000 1.0
C      1  0.4925230000000  0.4365680000000  0.4173960000000 1.0
C      1  0.5064670000000  0.5630030000000  0.4168680000000 1.0
C      1  0.5104310000000  0.4484310000000  0.4092580000000 1.0
C      1  0.4361470000000  0.5827060000000  0.5062060000000 1.0
C      1  0.4885560000000  0.5509280000000  0.4089570000000 1.0
C      1  0.5078490000000  0.4374920000000  0.5809940000000 1.0
C      1  0.5905570000000  0.5099700000000  0.5513160000000 1.0
C      1  0.5494730000000  0.5901210000000  0.5116290000000 1.0
C      1  0.4070450000000  0.4999030000000  0.5431160000000 1.0
C      1  0.4561880000000  0.4089180000000  0.5009490000000 1.0
C      1  0.4874920000000  0.4477640000000  0.4102140000000 1.0
C      1  0.5648590000000  0.4159890000000  0.4928400000000 1.0
C      1  0.5828990000000  0.5066680000000  0.5629920000000 1.0
C      1  0.5549050000000  0.4088170000000  0.5123020000000 1.0
C      1  0.4922750000000  0.5625700000000  0.4162260000000 1.0
C      1  0.4369050000000  0.4202690000000  0.4954810000000 1.0
C      1  0.5437220000000  0.5949720000000  0.4995380000000 1.0
C      1  0.5066990000000  0.4369890000000  0.4168850000000 1.0
C      1  0.4477620000000  0.4128080000000  0.4901240000000 1.0
C      1  0.5513430000000  0.5896720000000  0.4887390000000 1.0
C      1  0.4167780000000  0.5051550000000  0.5631950000000 1.0
C      1  0.4079680000000  0.5120830000000  0.4475880000000 1.0
C      1  0.4994180000000  0.5439340000000  0.5947300000000 1.0
C      1  0.5827620000000  0.4924550000000  0.5643500000000 1.0
C      1  0.5886980000000  0.4874530000000  0.4511890000000 1.0
C      1  0.5022620000000  0.4554670000000  0.5939530000000 1.0
C      1  0.5453540000000  0.4073320000000  0.5018240000000 1.0
C      1  0.5826950000000  0.4912530000000  0.4388320000000 1.0
C      1  0.4158250000000  0.4939910000000  0.4357250000000 1.0
C      1  0.4113880000000  0.4873690000000  0.5488130000000 1.0
C      1  0.5603880000000  0.5815540000000  0.5084100000000 1.0
C      1  0.5891970000000  0.5106030000000  0.4494680000000 1.0
C      1  0.5828280000000  0.5054400000000  0.4378040000000 1.0
C      1  0.4501870000000  0.4138690000000  0.5129320000000 1.0
C      1  0.5960130000000  0.4979450000000  0.5461230000000 1.0
C      1  0.4384520000000  0.4213680000000  0.5095690000000 1.0
C      1  0.4086230000000  0.4890380000000  0.4469900000000 1.0
C      1  0.5519520000000  0.4107390000000  0.4893870000000 1.0
C      1  0.5132300000000  0.4485590000000  0.5882080000000 1.0
C      1  0.5904950000000  0.4870080000000  0.5537350000000 1.0
C      1  0.5074670000000  0.5621440000000  0.5833050000000 1.0
C      1  0.4102260000000  0.5106290000000  0.5517660000000 1.0
C      1  0.4037260000000  0.5002320000000  0.4541910000000 1.0
C      1  0.4985920000000  0.4551330000000  0.4052160000000 1.0
C      1  0.4175170000000  0.4909970000000  0.5612470000000 1.0
C      1  0.4473910000000  0.5896710000000  0.5113810000000 1.0
C      1  0.5115300000000  0.5516120000000  0.4100250000000 1.0
C      1  0.5113110000000  0.5505720000000  0.5905360000000 1.0
C      1  0.4900600000000  0.4491550000000  0.5901120000000 1.0
END
